  Page 1                                    Wed May 14 11:08:50 2025

  ******************************************************************
  *                           E P A N E T                          *
  *                   Hydraulic and Water Quality                  *
  *                   Analysis for Pipe Networks                   *
  *                         Version 2.00.12                        *
  ******************************************************************
  
  Analysis begun Wed May 14 11:08:50 2025

   
  Hydraulic Status:
  -----------------------------------------------------------------------
     0:00:00: Pump P1 changed by timer control
     0:00:00: Balancing the network:
              Trial  1: relative flow change = 2.930009
              Trial  2: relative flow change = 0.000002
     0:00:00: Balanced after 2 trials
     0:00:00: Reservoir Source is closed
     0:00:00: Tank Tank1 is emptying at 4.00 m
     0:00:00: Pump P1 closed
   
     0:05:00: Balancing the network:
              Trial  1: relative flow change = 0.000000
     0:05:00: Balanced after 1 trials
   
     0:10:00: Balancing the network:
              Trial  1: relative flow change = 0.000000
     0:10:00: Balanced after 1 trials
   
     0:15:00: Balancing the network:
              Trial  1: relative flow change = 0.000000
     0:15:00: Balanced after 1 trials
   
     0:20:00: Balancing the network:
              Trial  1: relative flow change = 0.000000
     0:20:00: Balanced after 1 trials
   
     0:25:00: Balancing the network:
              Trial  1: relative flow change = 0.000000
     0:25:00: Balanced after 1 trials
   
     0:30:00: Balancing the network:
              Trial  1: relative flow change = 0.023722
              Trial  2: relative flow change = 0.000000
     0:30:00: Balanced after 2 trials
   
     0:35:00: Balancing the network:
              Trial  1: relative flow change = 0.000000
     0:35:00: Balanced after 1 trials
   
     0:40:00: Balancing the network:
              Trial  1: relative flow change = 0.000000
     0:40:00: Balanced after 1 trials
   
     0:45:00: Balancing the network:
              Trial  1: relative flow change = 0.000000
     0:45:00: Balanced after 1 trials
   
     0:50:00: Balancing the network:
              Trial  1: relative flow change = 0.000000
     0:50:00: Balanced after 1 trials
   
     0:55:00: Balancing the network:
              Trial  1: relative flow change = 0.000000
     0:55:00: Balanced after 1 trials
   
     1:00:00: Balancing the network:
              Trial  1: relative flow change = 0.035211
              Trial  2: relative flow change = 0.000000
     1:00:00: Balanced after 2 trials
   
     1:05:00: Balancing the network:
              Trial  1: relative flow change = 0.000000
     1:05:00: Balanced after 1 trials
   
     1:10:00: Balancing the network:
              Trial  1: relative flow change = 0.000000
     1:10:00: Balanced after 1 trials
   
     1:15:00: Balancing the network:
              Trial  1: relative flow change = 0.000000
     1:15:00: Balanced after 1 trials
   
     1:20:00: Balancing the network:
              Trial  1: relative flow change = 0.000000
     1:20:00: Balanced after 1 trials
   
     1:25:00: Balancing the network:
              Trial  1: relative flow change = 0.000000
     1:25:00: Balanced after 1 trials
   
     1:30:00: Balancing the network:
              Trial  1: relative flow change = 0.041630
              Trial  2: relative flow change = 0.000000
     1:30:00: Balanced after 2 trials
   
     1:35:00: Balancing the network:
              Trial  1: relative flow change = 0.000000
     1:35:00: Balanced after 1 trials
   
     1:40:00: Balancing the network:
              Trial  1: relative flow change = 0.000000
     1:40:00: Balanced after 1 trials
   
     1:45:00: Balancing the network:
              Trial  1: relative flow change = 0.000000
     1:45:00: Balanced after 1 trials
   
     1:50:00: Balancing the network:
              Trial  1: relative flow change = 0.000000
     1:50:00: Balanced after 1 trials
   
     1:55:00: Balancing the network:
              Trial  1: relative flow change = 0.000000
     1:55:00: Balanced after 1 trials
   
     2:00:00: Balancing the network:
              Trial  1: relative flow change = 0.043581
              Trial  2: relative flow change = 0.000000
     2:00:00: Balanced after 2 trials
   
     2:05:00: Balancing the network:
              Trial  1: relative flow change = 0.000000
     2:05:00: Balanced after 1 trials
   
     2:10:00: Balancing the network:
              Trial  1: relative flow change = 0.000000
     2:10:00: Balanced after 1 trials
   
     2:15:00: Balancing the network:
              Trial  1: relative flow change = 0.000000
     2:15:00: Balanced after 1 trials
   
     2:20:00: Balancing the network:
              Trial  1: relative flow change = 0.000000
     2:20:00: Balanced after 1 trials
   
     2:25:00: Balancing the network:
              Trial  1: relative flow change = 0.000000
     2:25:00: Balanced after 1 trials
   
     2:30:00: Balancing the network:
              Trial  1: relative flow change = 0.041640
              Trial  2: relative flow change = 0.000000
     2:30:00: Balanced after 2 trials
   
     2:35:00: Balancing the network:
              Trial  1: relative flow change = 0.000000
     2:35:00: Balanced after 1 trials
   
     2:40:00: Balancing the network:
              Trial  1: relative flow change = 0.000000
     2:40:00: Balanced after 1 trials
   
     2:45:00: Balancing the network:
              Trial  1: relative flow change = 0.000000
     2:45:00: Balanced after 1 trials
   
     2:50:00: Balancing the network:
              Trial  1: relative flow change = 0.000000
     2:50:00: Balanced after 1 trials
   
     2:55:00: Balancing the network:
              Trial  1: relative flow change = 0.000000
     2:55:00: Balanced after 1 trials
   
     3:00:00: Balancing the network:
              Trial  1: relative flow change = 0.036405
              Trial  2: relative flow change = 0.000000
     3:00:00: Balanced after 2 trials
   
     3:05:00: Balancing the network:
              Trial  1: relative flow change = 0.000000
     3:05:00: Balanced after 1 trials
   
     3:10:00: Balancing the network:
              Trial  1: relative flow change = 0.000000
     3:10:00: Balanced after 1 trials
   
     3:15:00: Balancing the network:
              Trial  1: relative flow change = 0.000000
     3:15:00: Balanced after 1 trials
   
     3:20:00: Balancing the network:
              Trial  1: relative flow change = 0.000000
     3:20:00: Balanced after 1 trials
   
     3:25:00: Balancing the network:
              Trial  1: relative flow change = 0.000000
     3:25:00: Balanced after 1 trials
   
     3:30:00: Balancing the network:
              Trial  1: relative flow change = 0.028671
              Trial  2: relative flow change = 0.000000
     3:30:00: Balanced after 2 trials
   
     3:35:00: Balancing the network:
              Trial  1: relative flow change = 0.000000
     3:35:00: Balanced after 1 trials
   
     3:40:00: Balancing the network:
              Trial  1: relative flow change = 0.000000
     3:40:00: Balanced after 1 trials
   
     3:45:00: Balancing the network:
              Trial  1: relative flow change = 0.000000
     3:45:00: Balanced after 1 trials
   
     3:50:00: Balancing the network:
              Trial  1: relative flow change = 0.000000
     3:50:00: Balanced after 1 trials
   
     3:55:00: Balancing the network:
              Trial  1: relative flow change = 0.000000
     3:55:00: Balanced after 1 trials
   
     4:00:00: Balancing the network:
              Trial  1: relative flow change = 0.019308
              Trial  2: relative flow change = 0.000000
     4:00:00: Balanced after 2 trials
   
     4:05:00: Balancing the network:
              Trial  1: relative flow change = 0.000000
     4:05:00: Balanced after 1 trials
   
     4:06:46: Pump P1 changed by timer control
     4:06:46: Balancing the network:
              Trial  1: relative flow change = 0.996717
              Trial  2: relative flow change = 0.982873
              Trial  3: relative flow change = 0.952764
              Trial  4: relative flow change = 0.861971
              Trial  5: relative flow change = 0.627484
              Trial  6: relative flow change = 0.264778
              Trial  7: relative flow change = 0.039483
              Trial  8: relative flow change = 0.000865
     4:06:46: Balanced after 8 trials
     4:06:46: Reservoir Source is emptying
     4:06:46: Tank Tank1 is filling at 1.72 m
     4:06:46: Pump P1 changed from closed to open
   
     4:10:00: Balancing the network:
              Trial  1: relative flow change = 0.000115
     4:10:00: Balanced after 1 trials
   
     4:15:00: Balancing the network:
              Trial  1: relative flow change = 0.000176
     4:15:00: Balanced after 1 trials
   
     4:20:00: Balancing the network:
              Trial  1: relative flow change = 0.000176
     4:20:00: Balanced after 1 trials
   
     4:25:00: Balancing the network:
              Trial  1: relative flow change = 0.000176
     4:25:00: Balanced after 1 trials
   
     4:30:00: Balancing the network:
              Trial  1: relative flow change = 0.001186
              Trial  2: relative flow change = 0.000001
     4:30:00: Balanced after 2 trials
   
     4:35:00: Balancing the network:
              Trial  1: relative flow change = 0.000176
     4:35:00: Balanced after 1 trials
   
     4:40:00: Balancing the network:
              Trial  1: relative flow change = 0.000176
     4:40:00: Balanced after 1 trials
   
     4:45:00: Balancing the network:
              Trial  1: relative flow change = 0.000176
     4:45:00: Balanced after 1 trials
   
     4:50:00: Balancing the network:
              Trial  1: relative flow change = 0.000176
     4:50:00: Balanced after 1 trials
   
     4:55:00: Balancing the network:
              Trial  1: relative flow change = 0.000176
     4:55:00: Balanced after 1 trials
   
     5:00:00: Balancing the network:
              Trial  1: relative flow change = 0.001294
              Trial  2: relative flow change = 0.000001
     5:00:00: Balanced after 2 trials
   
     5:05:00: Balancing the network:
              Trial  1: relative flow change = 0.000175
     5:05:00: Balanced after 1 trials
   
     5:10:00: Balancing the network:
              Trial  1: relative flow change = 0.000175
     5:10:00: Balanced after 1 trials
   
     5:15:00: Balancing the network:
              Trial  1: relative flow change = 0.000175
     5:15:00: Balanced after 1 trials
   
     5:20:00: Balancing the network:
              Trial  1: relative flow change = 0.000175
     5:20:00: Balanced after 1 trials
   
     5:25:00: Balancing the network:
              Trial  1: relative flow change = 0.000175
     5:25:00: Balanced after 1 trials
   
     5:30:00: Balancing the network:
              Trial  1: relative flow change = 0.002427
              Trial  2: relative flow change = 0.000001
     5:30:00: Balanced after 2 trials
   
     5:35:00: Balancing the network:
              Trial  1: relative flow change = 0.000173
     5:35:00: Balanced after 1 trials
   
     5:40:00: Balancing the network:
              Trial  1: relative flow change = 0.000173
     5:40:00: Balanced after 1 trials
   
     5:45:00: Balancing the network:
              Trial  1: relative flow change = 0.000173
     5:45:00: Balanced after 1 trials
   
     5:50:00: Balancing the network:
              Trial  1: relative flow change = 0.000173
     5:50:00: Balanced after 1 trials
   
     5:55:00: Balancing the network:
              Trial  1: relative flow change = 0.000173
     5:55:00: Balanced after 1 trials
   
     6:00:00: Balancing the network:
              Trial  1: relative flow change = 0.003415
              Trial  2: relative flow change = 0.000001
     6:00:00: Balanced after 2 trials
   
     6:05:00: Balancing the network:
              Trial  1: relative flow change = 0.000170
     6:05:00: Balanced after 1 trials
   
     6:10:00: Balancing the network:
              Trial  1: relative flow change = 0.000170
     6:10:00: Balanced after 1 trials
   
     6:15:00: Balancing the network:
              Trial  1: relative flow change = 0.000170
     6:15:00: Balanced after 1 trials
   
     6:19:19: Pump P1 changed by timer control
     6:19:19: Balancing the network:
              Trial  1: relative flow change = 7.492633
              Trial  2: relative flow change = 0.000010
     6:19:19: Balanced after 2 trials
     6:19:19: Reservoir Source is closed
     6:19:19: Tank Tank1 is emptying at 3.50 m
     6:19:19: Pump P1 changed from open to closed
   
     6:20:00: Balancing the network:
              Trial  1: relative flow change = 0.000000
     6:20:00: Balanced after 1 trials
   
     6:25:00: Balancing the network:
              Trial  1: relative flow change = 0.000000
     6:25:00: Balanced after 1 trials
   
     6:30:00: Balancing the network:
              Trial  1: relative flow change = 0.031688
              Trial  2: relative flow change = 0.000000
     6:30:00: Balanced after 2 trials
   
     6:35:00: Balancing the network:
              Trial  1: relative flow change = 0.000000
     6:35:00: Balanced after 1 trials
   
     6:40:00: Balancing the network:
              Trial  1: relative flow change = 0.000000
     6:40:00: Balanced after 1 trials
   
     6:45:00: Balancing the network:
              Trial  1: relative flow change = 0.000000
     6:45:00: Balanced after 1 trials
   
     6:50:00: Balancing the network:
              Trial  1: relative flow change = 0.000000
     6:50:00: Balanced after 1 trials
   
     6:55:00: Balancing the network:
              Trial  1: relative flow change = 0.000000
     6:55:00: Balanced after 1 trials
   
     7:00:00: Balancing the network:
              Trial  1: relative flow change = 0.035153
              Trial  2: relative flow change = 0.000000
     7:00:00: Balanced after 2 trials
   
     7:05:00: Balancing the network:
              Trial  1: relative flow change = 0.000000
     7:05:00: Balanced after 1 trials
   
     7:10:00: Balancing the network:
              Trial  1: relative flow change = 0.000000
     7:10:00: Balanced after 1 trials
   
     7:15:00: Balancing the network:
              Trial  1: relative flow change = 0.000000
     7:15:00: Balanced after 1 trials
   
     7:20:00: Balancing the network:
              Trial  1: relative flow change = 0.000000
     7:20:00: Balanced after 1 trials
   
     7:25:00: Balancing the network:
              Trial  1: relative flow change = 0.000000
     7:25:00: Balanced after 1 trials
   
     7:30:00: Balancing the network:
              Trial  1: relative flow change = 0.036824
              Trial  2: relative flow change = 0.000000
     7:30:00: Balanced after 2 trials
   
     7:35:00: Balancing the network:
              Trial  1: relative flow change = 0.000000
     7:35:00: Balanced after 1 trials
   
     7:40:00: Balancing the network:
              Trial  1: relative flow change = 0.000000
     7:40:00: Balanced after 1 trials
   
     7:45:00: Balancing the network:
              Trial  1: relative flow change = 0.000000
     7:45:00: Balanced after 1 trials
   
     7:50:00: Balancing the network:
              Trial  1: relative flow change = 0.000000
     7:50:00: Balanced after 1 trials
   
     7:55:00: Balancing the network:
              Trial  1: relative flow change = 0.000000
     7:55:00: Balanced after 1 trials
   
     8:00:00: Balancing the network:
              Trial  1: relative flow change = 0.036889
              Trial  2: relative flow change = 0.000000
     8:00:00: Balanced after 2 trials
   
     8:05:00: Balancing the network:
              Trial  1: relative flow change = 0.000000
     8:05:00: Balanced after 1 trials
   
     8:10:00: Balancing the network:
              Trial  1: relative flow change = 0.000000
     8:10:00: Balanced after 1 trials
   
     8:15:00: Balancing the network:
              Trial  1: relative flow change = 0.000000
     8:15:00: Balanced after 1 trials
   
     8:20:00: Balancing the network:
              Trial  1: relative flow change = 0.000000
     8:20:00: Balanced after 1 trials
   
     8:25:00: Balancing the network:
              Trial  1: relative flow change = 0.000000
     8:25:00: Balanced after 1 trials
   
     8:30:00: Balancing the network:
              Trial  1: relative flow change = 0.035637
              Trial  2: relative flow change = 0.000000
     8:30:00: Balanced after 2 trials
   
     8:35:00: Balancing the network:
              Trial  1: relative flow change = 0.000000
     8:35:00: Balanced after 1 trials
   
     8:40:00: Balancing the network:
              Trial  1: relative flow change = 0.000000
     8:40:00: Balanced after 1 trials
   
     8:45:00: Balancing the network:
              Trial  1: relative flow change = 0.000000
     8:45:00: Balanced after 1 trials
   
     8:50:00: Balancing the network:
              Trial  1: relative flow change = 0.000000
     8:50:00: Balanced after 1 trials
   
     8:55:00: Balancing the network:
              Trial  1: relative flow change = 0.000000
     8:55:00: Balanced after 1 trials
   
     8:56:50: Pump P1 changed by timer control
     8:56:50: Balancing the network:
              Trial  1: relative flow change = 0.994661
              Trial  2: relative flow change = 0.975326
              Trial  3: relative flow change = 0.934170
              Trial  4: relative flow change = 0.816782
              Trial  5: relative flow change = 0.544271
              Trial  6: relative flow change = 0.192664
              Trial  7: relative flow change = 0.021097
              Trial  8: relative flow change = 0.000258
     8:56:50: Balanced after 8 trials
     8:56:50: Reservoir Source is emptying
     8:56:50: Tank Tank1 is filling at 1.99 m
     8:56:50: Pump P1 changed from closed to open
   
     9:00:00: Balancing the network:
              Trial  1: relative flow change = 0.005173
              Trial  2: relative flow change = 0.000001
     9:00:00: Balanced after 2 trials
   
     9:05:00: Balancing the network:
              Trial  1: relative flow change = 0.000140
     9:05:00: Balanced after 1 trials
   
     9:10:00: Balancing the network:
              Trial  1: relative flow change = 0.000140
     9:10:00: Balanced after 1 trials
   
     9:15:00: Balancing the network:
              Trial  1: relative flow change = 0.000140
     9:15:00: Balanced after 1 trials
   
     9:20:00: Balancing the network:
              Trial  1: relative flow change = 0.000140
     9:20:00: Balanced after 1 trials
   
     9:25:00: Balancing the network:
              Trial  1: relative flow change = 0.000140
     9:25:00: Balanced after 1 trials
   
     9:30:00: Balancing the network:
              Trial  1: relative flow change = 0.004800
              Trial  2: relative flow change = 0.000001
     9:30:00: Balanced after 2 trials
   
     9:35:00: Balancing the network:
              Trial  1: relative flow change = 0.000136
     9:35:00: Balanced after 1 trials
   
     9:40:00: Balancing the network:
              Trial  1: relative flow change = 0.000136
     9:40:00: Balanced after 1 trials
   
     9:45:00: Balancing the network:
              Trial  1: relative flow change = 0.000136
     9:45:00: Balanced after 1 trials
   
     9:50:00: Balancing the network:
              Trial  1: relative flow change = 0.000136
     9:50:00: Balanced after 1 trials
   
     9:55:00: Balancing the network:
              Trial  1: relative flow change = 0.000136
     9:55:00: Balanced after 1 trials
   
    10:00:00: Balancing the network:
              Trial  1: relative flow change = 0.004307
              Trial  2: relative flow change = 0.000001
    10:00:00: Balanced after 2 trials
   
    10:05:00: Balancing the network:
              Trial  1: relative flow change = 0.000131
    10:05:00: Balanced after 1 trials
   
    10:10:00: Balancing the network:
              Trial  1: relative flow change = 0.000132
    10:10:00: Balanced after 1 trials
   
    10:15:00: Balancing the network:
              Trial  1: relative flow change = 0.000132
    10:15:00: Balanced after 1 trials
   
    10:20:00: Balancing the network:
              Trial  1: relative flow change = 0.000132
    10:20:00: Balanced after 1 trials
   
    10:25:00: Balancing the network:
              Trial  1: relative flow change = 0.000132
    10:25:00: Balanced after 1 trials
   
    10:30:00: Balancing the network:
              Trial  1: relative flow change = 0.003703
              Trial  2: relative flow change = 0.000001
    10:30:00: Balanced after 2 trials
   
    10:35:00: Balancing the network:
              Trial  1: relative flow change = 0.000128
    10:35:00: Balanced after 1 trials
   
    10:39:52: Pump P1 changed by timer control
    10:39:52: Balancing the network:
              Trial  1: relative flow change = 5.619439
              Trial  2: relative flow change = 0.000007
    10:39:52: Balanced after 2 trials
    10:39:52: Reservoir Source is closed
    10:39:52: Tank Tank1 is emptying at 3.09 m
    10:39:52: Pump P1 changed from open to closed
   
    10:40:00: Balancing the network:
              Trial  1: relative flow change = 0.000000
    10:40:00: Balanced after 1 trials
   
    10:45:00: Balancing the network:
              Trial  1: relative flow change = 0.000000
    10:45:00: Balanced after 1 trials
   
    10:50:00: Balancing the network:
              Trial  1: relative flow change = 0.000000
    10:50:00: Balanced after 1 trials
   
    10:55:00: Balancing the network:
              Trial  1: relative flow change = 0.000000
    10:55:00: Balanced after 1 trials
   
    11:00:00: Balancing the network:
              Trial  1: relative flow change = 0.017720
              Trial  2: relative flow change = 0.000000
    11:00:00: Balanced after 2 trials
   
    11:05:00: Balancing the network:
              Trial  1: relative flow change = 0.000000
    11:05:00: Balanced after 1 trials
   
    11:10:00: Balancing the network:
              Trial  1: relative flow change = 0.000000
    11:10:00: Balanced after 1 trials
   
    11:15:00: Balancing the network:
              Trial  1: relative flow change = 0.000000
    11:15:00: Balanced after 1 trials
   
    11:20:00: Balancing the network:
              Trial  1: relative flow change = 0.000000
    11:20:00: Balanced after 1 trials
   
    11:25:00: Balancing the network:
              Trial  1: relative flow change = 0.000000
    11:25:00: Balanced after 1 trials
   
    11:30:00: Balancing the network:
              Trial  1: relative flow change = 0.013196
              Trial  2: relative flow change = 0.000000
    11:30:00: Balanced after 2 trials
   
    11:35:00: Balancing the network:
              Trial  1: relative flow change = 0.000000
    11:35:00: Balanced after 1 trials
   
    11:40:00: Balancing the network:
              Trial  1: relative flow change = 0.000000
    11:40:00: Balanced after 1 trials
   
    11:45:00: Balancing the network:
              Trial  1: relative flow change = 0.000000
    11:45:00: Balanced after 1 trials
   
    11:50:00: Balancing the network:
              Trial  1: relative flow change = 0.000000
    11:50:00: Balanced after 1 trials
   
    11:55:00: Balancing the network:
              Trial  1: relative flow change = 0.000000
    11:55:00: Balanced after 1 trials
   
    12:00:00: Balancing the network:
              Trial  1: relative flow change = 0.008712
              Trial  2: relative flow change = 0.000000
    12:00:00: Balanced after 2 trials
   
    12:05:00: Balancing the network:
              Trial  1: relative flow change = 0.000000
    12:05:00: Balanced after 1 trials
   
    12:10:00: Balancing the network:
              Trial  1: relative flow change = 0.000000
    12:10:00: Balanced after 1 trials
   
    12:10:35: Pump P1 changed by timer control
    12:10:35: Balancing the network:
              Trial  1: relative flow change = 0.992750
              Trial  2: relative flow change = 0.968939
              Trial  3: relative flow change = 0.919100
              Trial  4: relative flow change = 0.782833
              Trial  5: relative flow change = 0.489783
              Trial  6: relative flow change = 0.154109
              Trial  7: relative flow change = 0.013690
              Trial  8: relative flow change = 0.000113
    12:10:35: Balanced after 8 trials
    12:10:35: Reservoir Source is emptying
    12:10:35: Tank Tank1 is filling at 2.01 m
    12:10:35: Pump P1 changed from closed to open
   
    12:15:00: Balancing the network:
              Trial  1: relative flow change = 0.000108
    12:15:00: Balanced after 1 trials
   
    12:20:00: Balancing the network:
              Trial  1: relative flow change = 0.000122
    12:20:00: Balanced after 1 trials
   
    12:25:00: Balancing the network:
              Trial  1: relative flow change = 0.000122
    12:25:00: Balanced after 1 trials
   
    12:30:00: Balancing the network:
              Trial  1: relative flow change = 0.000795
    12:30:00: Balanced after 1 trials
   
    12:35:00: Balancing the network:
              Trial  1: relative flow change = 0.000122
    12:35:00: Balanced after 1 trials
   
    12:40:00: Balancing the network:
              Trial  1: relative flow change = 0.000121
    12:40:00: Balanced after 1 trials
   
    12:45:00: Balancing the network:
              Trial  1: relative flow change = 0.000121
    12:45:00: Balanced after 1 trials
   
    12:50:00: Balancing the network:
              Trial  1: relative flow change = 0.000121
    12:50:00: Balanced after 1 trials
   
    12:55:00: Balancing the network:
              Trial  1: relative flow change = 0.000121
    12:55:00: Balanced after 1 trials
   
    13:00:00: Balancing the network:
              Trial  1: relative flow change = 0.000645
    13:00:00: Balanced after 1 trials
   
    13:05:00: Balancing the network:
              Trial  1: relative flow change = 0.000122
    13:05:00: Balanced after 1 trials
   
    13:10:00: Balancing the network:
              Trial  1: relative flow change = 0.000121
    13:10:00: Balanced after 1 trials
   
    13:15:00: Balancing the network:
              Trial  1: relative flow change = 0.000121
    13:15:00: Balanced after 1 trials
   
    13:20:00: Balancing the network:
              Trial  1: relative flow change = 0.000121
    13:20:00: Balanced after 1 trials
   
    13:25:00: Balancing the network:
              Trial  1: relative flow change = 0.000121
    13:25:00: Balanced after 1 trials
   
    13:30:00: Balancing the network:
              Trial  1: relative flow change = 0.001139
              Trial  2: relative flow change = 0.000000
    13:30:00: Balanced after 2 trials
   
    13:35:00: Balancing the network:
              Trial  1: relative flow change = 0.000122
    13:35:00: Balanced after 1 trials
   
    13:40:00: Balancing the network:
              Trial  1: relative flow change = 0.000122
    13:40:00: Balanced after 1 trials
   
    13:45:00: Balancing the network:
              Trial  1: relative flow change = 0.000122
    13:45:00: Balanced after 1 trials
   
    13:50:00: Balancing the network:
              Trial  1: relative flow change = 0.000122
    13:50:00: Balanced after 1 trials
   
    13:55:00: Balancing the network:
              Trial  1: relative flow change = 0.000122
    13:55:00: Balanced after 1 trials
   
    14:00:00: Balancing the network:
              Trial  1: relative flow change = 0.001524
              Trial  2: relative flow change = 0.000000
    14:00:00: Balanced after 2 trials
   
    14:05:00: Balancing the network:
              Trial  1: relative flow change = 0.000123
    14:05:00: Balanced after 1 trials
   
    14:10:00: Balancing the network:
              Trial  1: relative flow change = 0.000123
    14:10:00: Balanced after 1 trials
   
    14:15:00: Balancing the network:
              Trial  1: relative flow change = 0.000123
    14:15:00: Balanced after 1 trials
   
    14:20:00: Balancing the network:
              Trial  1: relative flow change = 0.000123
    14:20:00: Balanced after 1 trials
   
    14:25:00: Balancing the network:
              Trial  1: relative flow change = 0.000123
    14:25:00: Balanced after 1 trials
   
    14:28:14: Pump P1 changed by timer control
    14:28:14: Balancing the network:
              Trial  1: relative flow change = 5.431666
              Trial  2: relative flow change = 0.000007
    14:28:14: Balanced after 2 trials
    14:28:14: Reservoir Source is closed
    14:28:14: Tank Tank1 is emptying at 3.35 m
    14:28:14: Pump P1 changed from open to closed
   
    14:30:00: Balancing the network:
              Trial  1: relative flow change = 0.010608
              Trial  2: relative flow change = 0.000000
    14:30:00: Balanced after 2 trials
   
    14:35:00: Balancing the network:
              Trial  1: relative flow change = 0.000000
    14:35:00: Balanced after 1 trials
   
    14:40:00: Balancing the network:
              Trial  1: relative flow change = 0.000000
    14:40:00: Balanced after 1 trials
   
    14:45:00: Balancing the network:
              Trial  1: relative flow change = 0.000000
    14:45:00: Balanced after 1 trials
   
    14:50:00: Balancing the network:
              Trial  1: relative flow change = 0.000000
    14:50:00: Balanced after 1 trials
   
    14:55:00: Balancing the network:
              Trial  1: relative flow change = 0.000000
    14:55:00: Balanced after 1 trials
   
    14:55:09: Pump P1 changed by timer control
    14:55:09: Balancing the network:
              Trial  1: relative flow change = 0.992913
              Trial  2: relative flow change = 0.968058
              Trial  3: relative flow change = 0.916038
              Trial  4: relative flow change = 0.773722
              Trial  5: relative flow change = 0.472949
              Trial  6: relative flow change = 0.141971
              Trial  7: relative flow change = 0.011563
              Trial  8: relative flow change = 0.000081
    14:55:09: Balanced after 8 trials
    14:55:09: Reservoir Source is emptying
    14:55:09: Tank Tank1 is filling at 3.03 m
    14:55:09: Pump P1 changed from closed to open
   
    15:00:00: Balancing the network:
              Trial  1: relative flow change = 0.001949
              Trial  2: relative flow change = 0.000000
    15:00:00: Balanced after 2 trials
   
    15:05:00: Balancing the network:
              Trial  1: relative flow change = 0.000126
    15:05:00: Balanced after 1 trials
   
    15:10:00: Balancing the network:
              Trial  1: relative flow change = 0.000126
    15:10:00: Balanced after 1 trials
   
    15:15:00: Balancing the network:
              Trial  1: relative flow change = 0.000126
    15:15:00: Balanced after 1 trials
   
    15:20:00: Balancing the network:
              Trial  1: relative flow change = 0.000126
    15:20:00: Balanced after 1 trials
   
    15:25:00: Balancing the network:
              Trial  1: relative flow change = 0.000126
    15:25:00: Balanced after 1 trials
   
    15:30:00: Balancing the network:
              Trial  1: relative flow change = 0.001966
              Trial  2: relative flow change = 0.000000
    15:30:00: Balanced after 2 trials
   
    15:35:00: Balancing the network:
              Trial  1: relative flow change = 0.000128
    15:35:00: Balanced after 1 trials
   
    15:40:00: Balancing the network:
              Trial  1: relative flow change = 0.000128
    15:40:00: Balanced after 1 trials
   
    15:45:00: Balancing the network:
              Trial  1: relative flow change = 0.000128
    15:45:00: Balanced after 1 trials
   
    15:50:00: Balancing the network:
              Trial  1: relative flow change = 0.000128
    15:50:00: Balanced after 1 trials
   
    15:55:00: Balancing the network:
              Trial  1: relative flow change = 0.000128
    15:55:00: Balanced after 1 trials
   
    16:00:00: Balancing the network:
              Trial  1: relative flow change = 0.001816
              Trial  2: relative flow change = 0.000000
    16:00:00: Balanced after 2 trials
   
    16:04:55: Pump P1 changed by timer control
    16:04:55: Balancing the network:
              Trial  1: relative flow change = 5.650043
              Trial  2: relative flow change = 0.000007
    16:04:55: Balanced after 2 trials
    16:04:55: Reservoir Source is closed
    16:04:55: Tank Tank1 is emptying at 3.73 m
    16:04:55: Pump P1 changed from open to closed
   
    16:05:00: Balancing the network:
              Trial  1: relative flow change = 0.000000
    16:05:00: Balanced after 1 trials
   
    16:05:14: Pump P1 changed by timer control
    16:05:14: Balancing the network:
              Trial  1: relative flow change = 0.993345
              Trial  2: relative flow change = 0.968748
              Trial  3: relative flow change = 0.917120
              Trial  4: relative flow change = 0.774825
              Trial  5: relative flow change = 0.472979
              Trial  6: relative flow change = 0.141301
              Trial  7: relative flow change = 0.011395
              Trial  8: relative flow change = 0.000079
    16:05:14: Balanced after 8 trials
    16:05:14: Reservoir Source is emptying
    16:05:14: Tank Tank1 is filling at 3.73 m
    16:05:14: Pump P1 changed from closed to open
   
    16:10:00: Balancing the network:
              Trial  1: relative flow change = 0.000124
    16:10:00: Balanced after 1 trials
   
    16:15:00: Balancing the network:
              Trial  1: relative flow change = 0.000130
    16:15:00: Balanced after 1 trials
   
    16:20:00: Balancing the network:
              Trial  1: relative flow change = 0.000130
    16:20:00: Balanced after 1 trials
   
    16:25:00: Balancing the network:
              Trial  1: relative flow change = 0.000130
    16:25:00: Balanced after 1 trials
   
    16:30:00: Balancing the network:
              Trial  1: relative flow change = 0.001609
              Trial  2: relative flow change = 0.000000
    16:30:00: Balanced after 2 trials
   
    16:35:00: Balancing the network:
              Trial  1: relative flow change = 0.000131
    16:35:00: Balanced after 1 trials
   
    16:40:00: Balancing the network:
              Trial  1: relative flow change = 0.000131
    16:40:00: Balanced after 1 trials
   
    16:45:00: Balancing the network:
              Trial  1: relative flow change = 0.000131
    16:45:00: Balanced after 1 trials
   
    16:50:00: Balancing the network:
              Trial  1: relative flow change = 0.000131
    16:50:00: Balanced after 1 trials
   
    16:55:00: Balancing the network:
              Trial  1: relative flow change = 0.000131
    16:55:00: Balanced after 1 trials
   
    17:00:00: Balancing the network:
              Trial  1: relative flow change = 0.001279
              Trial  2: relative flow change = 0.000000
    17:00:00: Balanced after 2 trials
   
    17:05:00: Balancing the network:
              Trial  1: relative flow change = 0.000133
    17:05:00: Balanced after 1 trials
   
    17:10:00: Balancing the network:
              Trial  1: relative flow change = 0.000133
    17:10:00: Balanced after 1 trials
   
    17:15:00: Balancing the network:
              Trial  1: relative flow change = 0.000133
    17:15:00: Balanced after 1 trials
   
    17:20:00: Balancing the network:
              Trial  1: relative flow change = 0.000133
    17:20:00: Balanced after 1 trials
   
    17:25:00: Balancing the network:
              Trial  1: relative flow change = 0.000133
    17:25:00: Balanced after 1 trials
   
    17:30:00: Balancing the network:
              Trial  1: relative flow change = 0.000827
    17:30:00: Balanced after 1 trials
   
    17:35:00: Balancing the network:
              Trial  1: relative flow change = 0.000133
    17:35:00: Balanced after 1 trials
   
    17:40:00: Balancing the network:
              Trial  1: relative flow change = 0.000133
    17:40:00: Balanced after 1 trials
   
    17:45:00: Balancing the network:
              Trial  1: relative flow change = 0.000133
    17:45:00: Balanced after 1 trials
   
    17:50:00: Balancing the network:
              Trial  1: relative flow change = 0.000133
    17:50:00: Balanced after 1 trials
   
    17:55:00: Balancing the network:
              Trial  1: relative flow change = 0.000133
    17:55:00: Balanced after 1 trials
   
    18:00:00: Balancing the network:
              Trial  1: relative flow change = 0.000776
    18:00:00: Balanced after 1 trials
   
    18:05:00: Balancing the network:
              Trial  1: relative flow change = 0.000133
    18:05:00: Balanced after 1 trials
   
    18:10:00: Balancing the network:
              Trial  1: relative flow change = 0.000133
    18:10:00: Balanced after 1 trials
   
    18:15:00: Balancing the network:
              Trial  1: relative flow change = 0.000133
    18:15:00: Balanced after 1 trials
   
    18:20:00: Balancing the network:
              Trial  1: relative flow change = 0.000133
    18:20:00: Balanced after 1 trials
   
    18:25:00: Balancing the network:
              Trial  1: relative flow change = 0.000133
    18:25:00: Balanced after 1 trials
   
    18:30:00: Balancing the network:
              Trial  1: relative flow change = 0.001599
              Trial  2: relative flow change = 0.000000
    18:30:00: Balanced after 2 trials
   
    18:35:00: Balancing the network:
              Trial  1: relative flow change = 0.000132
    18:35:00: Balanced after 1 trials
   
    18:40:00: Balancing the network:
              Trial  1: relative flow change = 0.000133
    18:40:00: Balanced after 1 trials
   
    18:45:00: Balancing the network:
              Trial  1: relative flow change = 0.000132
    18:45:00: Balanced after 1 trials
   
    18:50:00: Balancing the network:
              Trial  1: relative flow change = 0.000132
    18:50:00: Balanced after 1 trials
   
    18:55:00: Balancing the network:
              Trial  1: relative flow change = 0.000132
    18:55:00: Balanced after 1 trials
   
    19:00:00: Balancing the network:
              Trial  1: relative flow change = 0.002414
              Trial  2: relative flow change = 0.000000
    19:00:00: Balanced after 2 trials
   
    19:05:00: Balancing the network:
              Trial  1: relative flow change = 0.000131
    19:05:00: Balanced after 1 trials
   
    19:10:00: Balancing the network:
              Trial  1: relative flow change = 0.000131
    19:10:00: Balanced after 1 trials
   
    19:15:00: Balancing the network:
              Trial  1: relative flow change = 0.000131
    19:15:00: Balanced after 1 trials
   
    19:20:00: Balancing the network:
              Trial  1: relative flow change = 0.000131
    19:20:00: Balanced after 1 trials
   
    19:25:00: Balancing the network:
              Trial  1: relative flow change = 0.000131
    19:25:00: Balanced after 1 trials
   
    19:30:00: Balancing the network:
              Trial  1: relative flow change = 0.003142
              Trial  2: relative flow change = 0.000000
    19:30:00: Balanced after 2 trials
   
    19:35:00: Balancing the network:
              Trial  1: relative flow change = 0.000129
    19:35:00: Balanced after 1 trials
   
    19:40:00: Balancing the network:
              Trial  1: relative flow change = 0.000129
    19:40:00: Balanced after 1 trials
   
    19:45:00: Balancing the network:
              Trial  1: relative flow change = 0.000129
    19:45:00: Balanced after 1 trials
   
    19:50:00: Balancing the network:
              Trial  1: relative flow change = 0.000129
    19:50:00: Balanced after 1 trials
   
    19:55:00: Balancing the network:
              Trial  1: relative flow change = 0.000129
    19:55:00: Balanced after 1 trials
   
    19:55:43: Pump P1 changed by timer control
    19:55:43: Balancing the network:
              Trial  1: relative flow change = 5.619892
              Trial  2: relative flow change = 0.000007
    19:55:43: Balanced after 2 trials
    19:55:43: Reservoir Source is closed
    19:55:43: Tank Tank1 is emptying at 6.11 m
    19:55:43: Pump P1 changed from open to closed
   
    20:00:00: Balancing the network:
              Trial  1: relative flow change = 0.021026
              Trial  2: relative flow change = 0.000000
    20:00:00: Balanced after 2 trials
   
    20:05:00: Balancing the network:
              Trial  1: relative flow change = 0.000000
    20:05:00: Balanced after 1 trials
   
    20:10:00: Balancing the network:
              Trial  1: relative flow change = 0.000000
    20:10:00: Balanced after 1 trials
   
    20:15:00: Balancing the network:
              Trial  1: relative flow change = 0.000000
    20:15:00: Balanced after 1 trials
   
    20:20:00: Balancing the network:
              Trial  1: relative flow change = 0.000000
    20:20:00: Balanced after 1 trials
   
    20:25:00: Balancing the network:
              Trial  1: relative flow change = 0.000000
    20:25:00: Balanced after 1 trials
   
    20:30:00: Balancing the network:
              Trial  1: relative flow change = 0.022418
              Trial  2: relative flow change = 0.000000
    20:30:00: Balanced after 2 trials
   
    20:35:00: Balancing the network:
              Trial  1: relative flow change = 0.000000
    20:35:00: Balanced after 1 trials
   
    20:40:00: Balancing the network:
              Trial  1: relative flow change = 0.000000
    20:40:00: Balanced after 1 trials
   
    20:45:00: Balancing the network:
              Trial  1: relative flow change = 0.000000
    20:45:00: Balanced after 1 trials
   
    20:50:00: Balancing the network:
              Trial  1: relative flow change = 0.000000
    20:50:00: Balanced after 1 trials
   
    20:55:00: Balancing the network:
              Trial  1: relative flow change = 0.000000
    20:55:00: Balanced after 1 trials
   
    21:00:00: Balancing the network:
              Trial  1: relative flow change = 0.021535
              Trial  2: relative flow change = 0.000000
    21:00:00: Balanced after 2 trials
   
    21:05:00: Balancing the network:
              Trial  1: relative flow change = 0.000000
    21:05:00: Balanced after 1 trials
   
    21:10:00: Balancing the network:
              Trial  1: relative flow change = 0.000000
    21:10:00: Balanced after 1 trials
   
    21:15:00: Balancing the network:
              Trial  1: relative flow change = 0.000000
    21:15:00: Balanced after 1 trials
   
    21:20:00: Balancing the network:
              Trial  1: relative flow change = 0.000000
    21:20:00: Balanced after 1 trials
   
    21:25:00: Balancing the network:
              Trial  1: relative flow change = 0.000000
    21:25:00: Balanced after 1 trials
   
    21:30:00: Balancing the network:
              Trial  1: relative flow change = 0.017652
              Trial  2: relative flow change = 0.000000
    21:30:00: Balanced after 2 trials
   
    21:35:00: Balancing the network:
              Trial  1: relative flow change = 0.000000
    21:35:00: Balanced after 1 trials
   
    21:40:00: Balancing the network:
              Trial  1: relative flow change = 0.000000
    21:40:00: Balanced after 1 trials
   
    21:45:00: Balancing the network:
              Trial  1: relative flow change = 0.000000
    21:45:00: Balanced after 1 trials
   
    21:50:00: Balancing the network:
              Trial  1: relative flow change = 0.000000
    21:50:00: Balanced after 1 trials
   
    21:55:00: Balancing the network:
              Trial  1: relative flow change = 0.000000
    21:55:00: Balanced after 1 trials
   
    22:00:00: Balancing the network:
              Trial  1: relative flow change = 0.009885
              Trial  2: relative flow change = 0.000000
    22:00:00: Balanced after 2 trials
   
    22:05:00: Balancing the network:
              Trial  1: relative flow change = 0.000000
    22:05:00: Balanced after 1 trials
   
    22:10:00: Balancing the network:
              Trial  1: relative flow change = 0.000000
    22:10:00: Balanced after 1 trials
   
    22:15:00: Balancing the network:
              Trial  1: relative flow change = 0.000000
    22:15:00: Balanced after 1 trials
   
    22:20:00: Balancing the network:
              Trial  1: relative flow change = 0.000000
    22:20:00: Balanced after 1 trials
   
    22:25:00: Balancing the network:
              Trial  1: relative flow change = 0.000000
    22:25:00: Balanced after 1 trials
   
    22:30:00: Balancing the network:
              Trial  1: relative flow change = 0.020689
              Trial  2: relative flow change = 0.000000
    22:30:00: Balanced after 2 trials
   
    22:35:00: Balancing the network:
              Trial  1: relative flow change = 0.000000
    22:35:00: Balanced after 1 trials
   
    22:40:00: Balancing the network:
              Trial  1: relative flow change = 0.000000
    22:40:00: Balanced after 1 trials
   
    22:45:00: Balancing the network:
              Trial  1: relative flow change = 0.000000
    22:45:00: Balanced after 1 trials
   
    22:50:00: Balancing the network:
              Trial  1: relative flow change = 0.000000
    22:50:00: Balanced after 1 trials
   
    22:55:00: Balancing the network:
              Trial  1: relative flow change = 0.000000
    22:55:00: Balanced after 1 trials
   
    23:00:00: Balancing the network:
              Trial  1: relative flow change = 0.043870
              Trial  2: relative flow change = 0.000000
    23:00:00: Balanced after 2 trials
   
    23:05:00: Balancing the network:
              Trial  1: relative flow change = 0.000000
    23:05:00: Balanced after 1 trials
   
    23:10:00: Balancing the network:
              Trial  1: relative flow change = 0.000000
    23:10:00: Balanced after 1 trials
   
    23:15:00: Balancing the network:
              Trial  1: relative flow change = 0.000000
    23:15:00: Balanced after 1 trials
   
    23:20:00: Balancing the network:
              Trial  1: relative flow change = 0.000000
    23:20:00: Balanced after 1 trials
   
    23:25:00: Balancing the network:
              Trial  1: relative flow change = 0.000000
    23:25:00: Balanced after 1 trials
   
    23:30:00: Balancing the network:
              Trial  1: relative flow change = 0.080189
              Trial  2: relative flow change = 0.000000
    23:30:00: Balanced after 2 trials
   
    23:35:00: Balancing the network:
              Trial  1: relative flow change = 0.000000
    23:35:00: Balanced after 1 trials
   
    23:40:00: Balancing the network:
              Trial  1: relative flow change = 0.000000
    23:40:00: Balanced after 1 trials
   
    23:45:00: Balancing the network:
              Trial  1: relative flow change = 0.000000
    23:45:00: Balanced after 1 trials
   
    23:50:00: Balancing the network:
              Trial  1: relative flow change = 0.000000
    23:50:00: Balanced after 1 trials
   
    23:55:00: Balancing the network:
              Trial  1: relative flow change = 0.000000
    23:55:00: Balanced after 1 trials
   
    24:00:00: Balancing the network:
              Trial  1: relative flow change = 0.008266
              Trial  2: relative flow change = 0.000000
    24:00:00: Balanced after 2 trials
   
  Analysis ended Wed May 14 11:08:50 2025
