  Page 1                                    Mon Apr 14 09:36:36 2025

  ******************************************************************
  *                           E P A N E T                          *
  *                   Hydraulic and Water Quality                  *
  *                   Analysis for Pipe Networks                   *
  *                         Version 2.00.12                        *
  ******************************************************************
  
  Analysis begun Mon Apr 14 09:36:36 2025

   
  Hydraulic Status:
  -----------------------------------------------------------------------
     0:00:00: Pump P1 changed by timer control
     0:00:00: Balancing the network:
              Trial  1: relative flow change = 2.930009
              Trial  2: relative flow change = 0.000002
     0:00:00: Balanced after 2 trials
     0:00:00: Reservoir Source is closed
     0:00:00: Tank Tank1 is emptying at 4.00 m
     0:00:00: Pump P1 closed
   
     0:05:00: Balancing the network:
              Trial  1: relative flow change = 0.000000
     0:05:00: Balanced after 1 trials
   
     0:10:00: Balancing the network:
              Trial  1: relative flow change = 0.000000
     0:10:00: Balanced after 1 trials
   
     0:15:00: Balancing the network:
              Trial  1: relative flow change = 0.000000
     0:15:00: Balanced after 1 trials
   
     0:20:00: Balancing the network:
              Trial  1: relative flow change = 0.000000
     0:20:00: Balanced after 1 trials
   
     0:25:00: Balancing the network:
              Trial  1: relative flow change = 0.000000
     0:25:00: Balanced after 1 trials
   
     0:30:00: Balancing the network:
              Trial  1: relative flow change = 0.023722
              Trial  2: relative flow change = 0.000000
     0:30:00: Balanced after 2 trials
   
     0:35:00: Balancing the network:
              Trial  1: relative flow change = 0.000000
     0:35:00: Balanced after 1 trials
   
     0:40:00: Balancing the network:
              Trial  1: relative flow change = 0.000000
     0:40:00: Balanced after 1 trials
   
     0:45:00: Balancing the network:
              Trial  1: relative flow change = 0.000000
     0:45:00: Balanced after 1 trials
   
     0:50:00: Balancing the network:
              Trial  1: relative flow change = 0.000000
     0:50:00: Balanced after 1 trials
   
     0:55:00: Balancing the network:
              Trial  1: relative flow change = 0.000000
     0:55:00: Balanced after 1 trials
   
     1:00:00: Balancing the network:
              Trial  1: relative flow change = 0.035211
              Trial  2: relative flow change = 0.000000
     1:00:00: Balanced after 2 trials
   
     1:05:00: Balancing the network:
              Trial  1: relative flow change = 0.000000
     1:05:00: Balanced after 1 trials
   
     1:10:00: Balancing the network:
              Trial  1: relative flow change = 0.000000
     1:10:00: Balanced after 1 trials
   
     1:15:00: Balancing the network:
              Trial  1: relative flow change = 0.000000
     1:15:00: Balanced after 1 trials
   
     1:20:00: Balancing the network:
              Trial  1: relative flow change = 0.000000
     1:20:00: Balanced after 1 trials
   
     1:25:00: Balancing the network:
              Trial  1: relative flow change = 0.000000
     1:25:00: Balanced after 1 trials
   
     1:30:00: Balancing the network:
              Trial  1: relative flow change = 0.041630
              Trial  2: relative flow change = 0.000000
     1:30:00: Balanced after 2 trials
   
     1:35:00: Balancing the network:
              Trial  1: relative flow change = 0.000000
     1:35:00: Balanced after 1 trials
   
     1:40:00: Balancing the network:
              Trial  1: relative flow change = 0.000000
     1:40:00: Balanced after 1 trials
   
     1:45:00: Balancing the network:
              Trial  1: relative flow change = 0.000000
     1:45:00: Balanced after 1 trials
   
     1:50:00: Balancing the network:
              Trial  1: relative flow change = 0.000000
     1:50:00: Balanced after 1 trials
   
     1:55:00: Balancing the network:
              Trial  1: relative flow change = 0.000000
     1:55:00: Balanced after 1 trials
   
     2:00:00: Balancing the network:
              Trial  1: relative flow change = 0.043581
              Trial  2: relative flow change = 0.000000
     2:00:00: Balanced after 2 trials
   
     2:05:00: Balancing the network:
              Trial  1: relative flow change = 0.000000
     2:05:00: Balanced after 1 trials
   
     2:10:00: Balancing the network:
              Trial  1: relative flow change = 0.000000
     2:10:00: Balanced after 1 trials
   
     2:14:50: Pump P1 changed by timer control
     2:14:50: Balancing the network:
              Trial  1: relative flow change = 0.995917
              Trial  2: relative flow change = 0.982336
              Trial  3: relative flow change = 0.953053
              Trial  4: relative flow change = 0.866923
              Trial  5: relative flow change = 0.644381
              Trial  6: relative flow change = 0.286509
              Trial  7: relative flow change = 0.047160
              Trial  8: relative flow change = 0.001247
              Trial  9: relative flow change = 0.000001
     2:14:50: Balanced after 9 trials
     2:14:50: Reservoir Source is emptying
     2:14:50: Tank Tank1 is filling at 2.68 m
     2:14:50: Pump P1 changed from closed to open
   
     2:15:00: Balancing the network:
              Trial  1: relative flow change = 0.000005
     2:15:00: Balanced after 1 trials
   
     2:20:00: Balancing the network:
              Trial  1: relative flow change = 0.000163
     2:20:00: Balanced after 1 trials
   
     2:25:00: Balancing the network:
              Trial  1: relative flow change = 0.000163
     2:25:00: Balanced after 1 trials
   
     2:26:33: Pump P1 changed by timer control
     2:26:33: Balancing the network:
              Trial  1: relative flow change = 7.197655
              Trial  2: relative flow change = 0.000009
     2:26:33: Balanced after 2 trials
     2:26:33: Reservoir Source is closed
     2:26:33: Tank Tank1 is emptying at 2.83 m
     2:26:33: Pump P1 changed from open to closed
   
     2:30:00: Balancing the network:
              Trial  1: relative flow change = 0.041640
              Trial  2: relative flow change = 0.000000
     2:30:00: Balanced after 2 trials
   
     2:35:00: Balancing the network:
              Trial  1: relative flow change = 0.000000
     2:35:00: Balanced after 1 trials
   
     2:40:00: Balancing the network:
              Trial  1: relative flow change = 0.000000
     2:40:00: Balanced after 1 trials
   
     2:45:00: Balancing the network:
              Trial  1: relative flow change = 0.000000
     2:45:00: Balanced after 1 trials
   
     2:50:00: Balancing the network:
              Trial  1: relative flow change = 0.000000
     2:50:00: Balanced after 1 trials
   
     2:55:00: Balancing the network:
              Trial  1: relative flow change = 0.000000
     2:55:00: Balanced after 1 trials
   
     3:00:00: Balancing the network:
              Trial  1: relative flow change = 0.036405
              Trial  2: relative flow change = 0.000000
     3:00:00: Balanced after 2 trials
   
     3:05:00: Balancing the network:
              Trial  1: relative flow change = 0.000000
     3:05:00: Balanced after 1 trials
   
     3:10:00: Balancing the network:
              Trial  1: relative flow change = 0.000000
     3:10:00: Balanced after 1 trials
   
     3:15:00: Balancing the network:
              Trial  1: relative flow change = 0.000000
     3:15:00: Balanced after 1 trials
   
     3:20:00: Balancing the network:
              Trial  1: relative flow change = 0.000000
     3:20:00: Balanced after 1 trials
   
     3:25:00: Balancing the network:
              Trial  1: relative flow change = 0.000000
     3:25:00: Balanced after 1 trials
   
     3:30:00: Balancing the network:
              Trial  1: relative flow change = 0.028671
              Trial  2: relative flow change = 0.000000
     3:30:00: Balanced after 2 trials
   
     3:35:00: Balancing the network:
              Trial  1: relative flow change = 0.000000
     3:35:00: Balanced after 1 trials
   
     3:40:00: Balancing the network:
              Trial  1: relative flow change = 0.000000
     3:40:00: Balanced after 1 trials
   
     3:45:00: Balancing the network:
              Trial  1: relative flow change = 0.000000
     3:45:00: Balanced after 1 trials
   
     3:50:00: Balancing the network:
              Trial  1: relative flow change = 0.000000
     3:50:00: Balanced after 1 trials
   
     3:55:00: Balancing the network:
              Trial  1: relative flow change = 0.000000
     3:55:00: Balanced after 1 trials
   
     4:00:00: Balancing the network:
              Trial  1: relative flow change = 0.019308
              Trial  2: relative flow change = 0.000000
     4:00:00: Balanced after 2 trials
   
     4:05:00: Balancing the network:
              Trial  1: relative flow change = 0.000000
     4:05:00: Balanced after 1 trials
   
     4:10:00: Balancing the network:
              Trial  1: relative flow change = 0.000000
     4:10:00: Balanced after 1 trials
   
     4:15:00: Balancing the network:
              Trial  1: relative flow change = 0.000000
     4:15:00: Balanced after 1 trials
   
     4:20:00: Balancing the network:
              Trial  1: relative flow change = 0.000000
     4:20:00: Balanced after 1 trials
   
     4:25:00: Balancing the network:
              Trial  1: relative flow change = 0.000000
     4:25:00: Balanced after 1 trials
   
     4:30:00: Balancing the network:
              Trial  1: relative flow change = 0.009286
              Trial  2: relative flow change = 0.000000
     4:30:00: Balanced after 2 trials
   
     4:35:00: Balancing the network:
              Trial  1: relative flow change = 0.000000
     4:35:00: Balanced after 1 trials
   
     4:40:00: Balancing the network:
              Trial  1: relative flow change = 0.000000
     4:40:00: Balanced after 1 trials
   
     4:45:00: Balancing the network:
              Trial  1: relative flow change = 0.000000
     4:45:00: Balanced after 1 trials
   
     4:50:00: Balancing the network:
              Trial  1: relative flow change = 0.000000
     4:50:00: Balanced after 1 trials
   
     4:55:00: Balancing the network:
              Trial  1: relative flow change = 0.000000
     4:55:00: Balanced after 1 trials
   
     5:00:00: Balancing the network:
              Trial  1: relative flow change = 0.010027
              Trial  2: relative flow change = 0.000000
     5:00:00: Balanced after 2 trials
   
     5:05:00: Balancing the network:
              Trial  1: relative flow change = 0.000000
     5:05:00: Balanced after 1 trials
   
     5:10:00: Balancing the network:
              Trial  1: relative flow change = 0.000000
     5:10:00: Balanced after 1 trials
   
     5:15:00: Balancing the network:
              Trial  1: relative flow change = 0.000000
     5:15:00: Balanced after 1 trials
   
     5:20:00: Balancing the network:
              Trial  1: relative flow change = 0.000000
     5:20:00: Balanced after 1 trials
   
     5:25:00: Balancing the network:
              Trial  1: relative flow change = 0.000000
     5:25:00: Balanced after 1 trials
   
     5:30:00: Balancing the network:
              Trial  1: relative flow change = 0.018995
              Trial  2: relative flow change = 0.000000
     5:30:00: Balanced after 2 trials
   
     5:35:00: Balancing the network:
              Trial  1: relative flow change = 0.000000
     5:35:00: Balanced after 1 trials
   
     5:40:00: Balancing the network:
              Trial  1: relative flow change = 0.000000
     5:40:00: Balanced after 1 trials
   
     5:45:00: Balancing the network:
              Trial  1: relative flow change = 0.000000
     5:45:00: Balanced after 1 trials
   
     5:50:00: Balancing the network:
              Trial  1: relative flow change = 0.000000
     5:50:00: Balanced after 1 trials
   
     5:55:00: Balancing the network:
              Trial  1: relative flow change = 0.000000
     5:55:00: Balanced after 1 trials
   
     6:00:00: Balancing the network:
              Trial  1: relative flow change = 0.026307
              Trial  2: relative flow change = 0.000000
     6:00:00: Balanced after 2 trials
   
     6:05:00: Balancing the network:
              Trial  1: relative flow change = 0.000000
     6:05:00: Balanced after 1 trials
   
     6:10:00: Balancing the network:
              Trial  1: relative flow change = 0.000000
     6:10:00: Balanced after 1 trials
   
     6:15:00: Balancing the network:
              Trial  1: relative flow change = 0.000000
     6:15:00: Balanced after 1 trials
   
     6:20:00: Balancing the network:
              Trial  1: relative flow change = 0.000000
     6:20:00: Balanced after 1 trials
   
     6:25:00: Balancing the network:
              Trial  1: relative flow change = 0.000000
     6:25:00: Balanced after 1 trials
   
     6:30:00: Balancing the network:
              Trial  1: relative flow change = 0.031688
              Trial  2: relative flow change = 0.000000
     6:30:00: Balanced after 2 trials
   
     6:35:00: Balancing the network:
              Trial  1: relative flow change = 0.000000
     6:35:00: Balanced after 1 trials
   
     6:40:00: Balancing the network:
              Trial  1: relative flow change = 0.000000
     6:40:00: Balanced after 1 trials
   
  WARNING: Negative pressures at 6:40:00 hrs.
  
     6:45:00: Balancing the network:
              Trial  1: relative flow change = 0.000000
     6:45:00: Balanced after 1 trials
   
  WARNING: Negative pressures at 6:45:00 hrs.
  
     6:50:00: Balancing the network:
              Trial  1: relative flow change = 0.000000
     6:50:00: Balanced after 1 trials
   
  WARNING: Negative pressures at 6:50:00 hrs.
  
     6:55:00: Balancing the network:
              Trial  1: relative flow change = 0.000000
     6:55:00: Balanced after 1 trials
   
  WARNING: Negative pressures at 6:55:00 hrs.
  
     7:00:00: Balancing the network:
              Trial  1: relative flow change = 0.035153
              Trial  2: relative flow change = 0.000000
     7:00:00: Balanced after 2 trials
   
  WARNING: Negative pressures at 7:00:00 hrs.
  
     7:05:00: Balancing the network:
              Trial  1: relative flow change = 0.000000
     7:05:00: Balanced after 1 trials
   
  WARNING: Negative pressures at 7:05:00 hrs.
  
     7:10:00: Balancing the network:
              Trial  1: relative flow change = 0.000000
     7:10:00: Balanced after 1 trials
   
  WARNING: Negative pressures at 7:10:00 hrs.
  
     7:15:00: Balancing the network:
              Trial  1: relative flow change = 0.000000
     7:15:00: Balanced after 1 trials
   
  WARNING: Negative pressures at 7:15:00 hrs.
  
     7:20:00: Balancing the network:
              Trial  1: relative flow change = 0.000000
     7:20:00: Balanced after 1 trials
   
  WARNING: Negative pressures at 7:20:00 hrs.
  
     7:25:00: Balancing the network:
              Trial  1: relative flow change = 0.000000
     7:25:00: Balanced after 1 trials
   
  WARNING: Negative pressures at 7:25:00 hrs.
  
     7:30:00: Balancing the network:
              Trial  1: relative flow change = 0.036824
              Trial  2: relative flow change = 0.000000
     7:30:00: Balanced after 2 trials
   
  WARNING: Negative pressures at 7:30:00 hrs.
  
     7:35:00: Balancing the network:
              Trial  1: relative flow change = 0.000000
     7:35:00: Balanced after 1 trials
   
  WARNING: Negative pressures at 7:35:00 hrs.
  
     7:40:00: Balancing the network:
              Trial  1: relative flow change = 0.000000
     7:40:00: Balanced after 1 trials
   
  WARNING: Negative pressures at 7:40:00 hrs.
  
     7:45:00: Balancing the network:
              Trial  1: relative flow change = 0.000000
     7:45:00: Balanced after 1 trials
   
  WARNING: Negative pressures at 7:45:00 hrs.
  
     7:50:00: Balancing the network:
              Trial  1: relative flow change = 0.000000
     7:50:00: Balanced after 1 trials
   
  WARNING: Negative pressures at 7:50:00 hrs.
  
     7:55:00: Balancing the network:
              Trial  1: relative flow change = 0.000000
     7:55:00: Balanced after 1 trials
   
  WARNING: Negative pressures at 7:55:00 hrs.
  
     8:00:00: Balancing the network:
              Trial  1: relative flow change = 0.036889
              Trial  2: relative flow change = 0.000000
     8:00:00: Balanced after 2 trials
   
  WARNING: Negative pressures at 8:00:00 hrs.
  
     8:05:00: Balancing the network:
              Trial  1: relative flow change = 0.000000
     8:05:00: Balanced after 1 trials
   
  WARNING: Negative pressures at 8:05:00 hrs.
  
     8:10:00: Balancing the network:
              Trial  1: relative flow change = 0.000000
     8:10:00: Balanced after 1 trials
   
  WARNING: Negative pressures at 8:10:00 hrs.
  
     8:15:00: Balancing the network:
              Trial  1: relative flow change = 0.000000
     8:15:00: Balanced after 1 trials
   
  WARNING: Negative pressures at 8:15:00 hrs.
  
     8:20:00: Balancing the network:
              Trial  1: relative flow change = 0.000000
     8:20:00: Balanced after 1 trials
   
  WARNING: Negative pressures at 8:20:00 hrs.
  
     8:25:00: Balancing the network:
              Trial  1: relative flow change = 0.000000
     8:25:00: Balanced after 1 trials
   
  WARNING: Negative pressures at 8:25:00 hrs.
  
     8:30:00: Balancing the network:
              Trial  1: relative flow change = 0.035637
              Trial  2: relative flow change = 0.000000
     8:30:00: Balanced after 2 trials
   
  WARNING: Negative pressures at 8:30:00 hrs.
  
     8:35:00: Balancing the network:
              Trial  1: relative flow change = 0.000000
     8:35:00: Balanced after 1 trials
   
  WARNING: Negative pressures at 8:35:00 hrs.
  
     8:40:00: Balancing the network:
              Trial  1: relative flow change = 0.000000
     8:40:00: Balanced after 1 trials
   
  WARNING: Negative pressures at 8:40:00 hrs.
  
     8:45:00: Balancing the network:
              Trial  1: relative flow change = 0.000000
     8:45:00: Balanced after 1 trials
   
  WARNING: Negative pressures at 8:45:00 hrs.
  
     8:50:00: Balancing the network:
              Trial  1: relative flow change = 0.000000
     8:50:00: Balanced after 1 trials
   
  WARNING: Negative pressures at 8:50:00 hrs.
  
     8:55:00: Balancing the network:
              Trial  1: relative flow change = 0.000000
     8:55:00: Balanced after 1 trials
   
  WARNING: Negative pressures at 8:55:00 hrs.
  
     9:00:00: Balancing the network:
              Trial  1: relative flow change = 0.033285
              Trial  2: relative flow change = 0.000000
     9:00:00: Balanced after 2 trials
   
  WARNING: Negative pressures at 9:00:00 hrs.
  
     9:05:00: Balancing the network:
              Trial  1: relative flow change = 0.000000
     9:05:00: Balanced after 1 trials
   
  WARNING: Negative pressures at 9:05:00 hrs.
  
     9:10:00: Balancing the network:
              Trial  1: relative flow change = 0.000000
     9:10:00: Balanced after 1 trials
   
  WARNING: Negative pressures at 9:10:00 hrs.
  
     9:15:00: Balancing the network:
              Trial  1: relative flow change = 0.000000
     9:15:00: Balanced after 1 trials
   
  WARNING: Negative pressures at 9:15:00 hrs.
  
     9:20:00: Balancing the network:
              Trial  1: relative flow change = 0.000000
     9:20:00: Balanced after 1 trials
   
  WARNING: Negative pressures at 9:20:00 hrs.
  
     9:24:26: Pump P1 changed by timer control
     9:24:26: Balancing the network:
              Trial  1: relative flow change = 0.994373
              Trial  2: relative flow change = 0.974577
              Trial  3: relative flow change = 0.932544
              Trial  4: relative flow change = 0.813441
              Trial  5: relative flow change = 0.539239
              Trial  6: relative flow change = 0.189160
              Trial  7: relative flow change = 0.020395
              Trial  8: relative flow change = 0.000242
     9:24:26: Balanced after 8 trials
     9:24:26: Reservoir Source is emptying
     9:24:26: Tank Tank1 is filling at -0.94 m
     9:24:26: Pump P1 changed from closed to open
   
  WARNING: Negative pressures at 9:24:26 hrs.
  
     9:25:00: Balancing the network:
              Trial  1: relative flow change = 0.000016
     9:25:00: Balanced after 1 trials
   
  WARNING: Negative pressures at 9:25:00 hrs.
  
     9:30:00: Balancing the network:
              Trial  1: relative flow change = 0.004761
              Trial  2: relative flow change = 0.000001
     9:30:00: Balanced after 2 trials
   
  WARNING: Negative pressures at 9:30:00 hrs.
  
     9:35:00: Balancing the network:
              Trial  1: relative flow change = 0.000136
     9:35:00: Balanced after 1 trials
   
  WARNING: Negative pressures at 9:35:00 hrs.
  
     9:40:00: Balancing the network:
              Trial  1: relative flow change = 0.000136
     9:40:00: Balanced after 1 trials
   
  WARNING: Negative pressures at 9:40:00 hrs.
  
     9:45:00: Balancing the network:
              Trial  1: relative flow change = 0.000136
     9:45:00: Balanced after 1 trials
   
  WARNING: Negative pressures at 9:45:00 hrs.
  
     9:50:00: Balancing the network:
              Trial  1: relative flow change = 0.000136
     9:50:00: Balanced after 1 trials
   
  WARNING: Negative pressures at 9:50:00 hrs.
  
     9:55:00: Balancing the network:
              Trial  1: relative flow change = 0.000136
     9:55:00: Balanced after 1 trials
   
  WARNING: Negative pressures at 9:55:00 hrs.
  
    10:00:00: Balancing the network:
              Trial  1: relative flow change = 0.004272
              Trial  2: relative flow change = 0.000001
    10:00:00: Balanced after 2 trials
   
  WARNING: Negative pressures at 10:00:00 hrs.
  
    10:05:00: Balancing the network:
              Trial  1: relative flow change = 0.000132
    10:05:00: Balanced after 1 trials
   
  WARNING: Negative pressures at 10:05:00 hrs.
  
    10:10:00: Balancing the network:
              Trial  1: relative flow change = 0.000132
    10:10:00: Balanced after 1 trials
   
  WARNING: Negative pressures at 10:10:00 hrs.
  
    10:15:00: Balancing the network:
              Trial  1: relative flow change = 0.000132
    10:15:00: Balanced after 1 trials
   
  WARNING: Negative pressures at 10:15:00 hrs.
  
    10:20:00: Balancing the network:
              Trial  1: relative flow change = 0.000132
    10:20:00: Balanced after 1 trials
   
  WARNING: Negative pressures at 10:20:00 hrs.
  
    10:25:00: Balancing the network:
              Trial  1: relative flow change = 0.000132
    10:25:00: Balanced after 1 trials
   
  WARNING: Negative pressures at 10:25:00 hrs.
  
    10:30:00: Balancing the network:
              Trial  1: relative flow change = 0.003673
              Trial  2: relative flow change = 0.000001
    10:30:00: Balanced after 2 trials
   
  WARNING: Negative pressures at 10:30:00 hrs.
  
    10:35:00: Balancing the network:
              Trial  1: relative flow change = 0.000128
    10:35:00: Balanced after 1 trials
   
  WARNING: Negative pressures at 10:35:00 hrs.
  
    10:40:00: Balancing the network:
              Trial  1: relative flow change = 0.000128
    10:40:00: Balanced after 1 trials
   
  WARNING: Negative pressures at 10:40:00 hrs.
  
    10:45:00: Balancing the network:
              Trial  1: relative flow change = 0.000128
    10:45:00: Balanced after 1 trials
   
  WARNING: Negative pressures at 10:45:00 hrs.
  
    10:50:00: Balancing the network:
              Trial  1: relative flow change = 0.000128
    10:50:00: Balanced after 1 trials
   
  WARNING: Negative pressures at 10:50:00 hrs.
  
    10:55:00: Balancing the network:
              Trial  1: relative flow change = 0.000128
    10:55:00: Balanced after 1 trials
   
  WARNING: Negative pressures at 10:55:00 hrs.
  
    11:00:00: Balancing the network:
              Trial  1: relative flow change = 0.002994
              Trial  2: relative flow change = 0.000001
    11:00:00: Balanced after 2 trials
   
  WARNING: Negative pressures at 11:00:00 hrs.
  
    11:05:00: Balancing the network:
              Trial  1: relative flow change = 0.000125
    11:05:00: Balanced after 1 trials
   
  WARNING: Negative pressures at 11:05:00 hrs.
  
    11:10:00: Balancing the network:
              Trial  1: relative flow change = 0.000125
    11:10:00: Balanced after 1 trials
   
    11:15:00: Balancing the network:
              Trial  1: relative flow change = 0.000125
    11:15:00: Balanced after 1 trials
   
    11:20:00: Balancing the network:
              Trial  1: relative flow change = 0.000125
    11:20:00: Balanced after 1 trials
   
    11:25:00: Balancing the network:
              Trial  1: relative flow change = 0.000125
    11:25:00: Balanced after 1 trials
   
    11:30:00: Balancing the network:
              Trial  1: relative flow change = 0.002269
              Trial  2: relative flow change = 0.000001
    11:30:00: Balanced after 2 trials
   
    11:35:00: Balancing the network:
              Trial  1: relative flow change = 0.000123
    11:35:00: Balanced after 1 trials
   
    11:40:00: Balancing the network:
              Trial  1: relative flow change = 0.000123
    11:40:00: Balanced after 1 trials
   
    11:40:01: Pump P1 changed by timer control
    11:40:01: Pump P1 changed by timer control
    11:40:01: Balancing the network:
              Trial  1: relative flow change = 0.000000
    11:40:01: Balanced after 1 trials
   
    11:45:00: Balancing the network:
              Trial  1: relative flow change = 0.000123
    11:45:00: Balanced after 1 trials
   
    11:50:00: Balancing the network:
              Trial  1: relative flow change = 0.000123
    11:50:00: Balanced after 1 trials
   
    11:55:00: Balancing the network:
              Trial  1: relative flow change = 0.000123
    11:55:00: Balanced after 1 trials
   
    12:00:00: Balancing the network:
              Trial  1: relative flow change = 0.001525
              Trial  2: relative flow change = 0.000000
    12:00:00: Balanced after 2 trials
   
    12:05:00: Balancing the network:
              Trial  1: relative flow change = 0.000122
    12:05:00: Balanced after 1 trials
   
    12:10:00: Balancing the network:
              Trial  1: relative flow change = 0.000122
    12:10:00: Balanced after 1 trials
   
    12:15:00: Balancing the network:
              Trial  1: relative flow change = 0.000122
    12:15:00: Balanced after 1 trials
   
    12:20:00: Balancing the network:
              Trial  1: relative flow change = 0.000122
    12:20:00: Balanced after 1 trials
   
    12:25:00: Balancing the network:
              Trial  1: relative flow change = 0.000122
    12:25:00: Balanced after 1 trials
   
    12:30:00: Balancing the network:
              Trial  1: relative flow change = 0.000793
    12:30:00: Balanced after 1 trials
   
    12:35:00: Balancing the network:
              Trial  1: relative flow change = 0.000122
    12:35:00: Balanced after 1 trials
   
    12:40:00: Balancing the network:
              Trial  1: relative flow change = 0.000121
    12:40:00: Balanced after 1 trials
   
    12:45:00: Balancing the network:
              Trial  1: relative flow change = 0.000121
    12:45:00: Balanced after 1 trials
   
    12:50:00: Balancing the network:
              Trial  1: relative flow change = 0.000121
    12:50:00: Balanced after 1 trials
   
    12:55:00: Balancing the network:
              Trial  1: relative flow change = 0.000121
    12:55:00: Balanced after 1 trials
   
    13:00:00: Balancing the network:
              Trial  1: relative flow change = 0.000642
    13:00:00: Balanced after 1 trials
   
    13:05:00: Balancing the network:
              Trial  1: relative flow change = 0.000122
    13:05:00: Balanced after 1 trials
   
    13:10:00: Balancing the network:
              Trial  1: relative flow change = 0.000121
    13:10:00: Balanced after 1 trials
   
    13:15:00: Balancing the network:
              Trial  1: relative flow change = 0.000121
    13:15:00: Balanced after 1 trials
   
    13:20:00: Balancing the network:
              Trial  1: relative flow change = 0.000121
    13:20:00: Balanced after 1 trials
   
    13:25:00: Balancing the network:
              Trial  1: relative flow change = 0.000121
    13:25:00: Balanced after 1 trials
   
    13:30:00: Balancing the network:
              Trial  1: relative flow change = 0.001135
              Trial  2: relative flow change = 0.000000
    13:30:00: Balanced after 2 trials
   
    13:35:00: Balancing the network:
              Trial  1: relative flow change = 0.000122
    13:35:00: Balanced after 1 trials
   
    13:40:00: Balancing the network:
              Trial  1: relative flow change = 0.000122
    13:40:00: Balanced after 1 trials
   
    13:45:00: Balancing the network:
              Trial  1: relative flow change = 0.000122
    13:45:00: Balanced after 1 trials
   
    13:50:00: Balancing the network:
              Trial  1: relative flow change = 0.000122
    13:50:00: Balanced after 1 trials
   
    13:55:00: Balancing the network:
              Trial  1: relative flow change = 0.000122
    13:55:00: Balanced after 1 trials
   
    14:00:00: Balancing the network:
              Trial  1: relative flow change = 0.001520
              Trial  2: relative flow change = 0.000000
    14:00:00: Balanced after 2 trials
   
    14:05:00: Balancing the network:
              Trial  1: relative flow change = 0.000123
    14:05:00: Balanced after 1 trials
   
    14:10:00: Balancing the network:
              Trial  1: relative flow change = 0.000123
    14:10:00: Balanced after 1 trials
   
    14:15:00: Balancing the network:
              Trial  1: relative flow change = 0.000123
    14:15:00: Balanced after 1 trials
   
    14:20:00: Balancing the network:
              Trial  1: relative flow change = 0.000123
    14:20:00: Balanced after 1 trials
   
    14:25:00: Balancing the network:
              Trial  1: relative flow change = 0.000123
    14:25:00: Balanced after 1 trials
   
    14:30:00: Balancing the network:
              Trial  1: relative flow change = 0.001780
              Trial  2: relative flow change = 0.000000
    14:30:00: Balanced after 2 trials
   
    14:35:00: Balancing the network:
              Trial  1: relative flow change = 0.000125
    14:35:00: Balanced after 1 trials
   
    14:40:00: Balancing the network:
              Trial  1: relative flow change = 0.000125
    14:40:00: Balanced after 1 trials
   
    14:43:46: Pump P1 changed by timer control
    14:43:46: Pump P1 changed by timer control
    14:43:46: Balancing the network:
              Trial  1: relative flow change = 0.000094
    14:43:46: Balanced after 1 trials
   
    14:45:00: Balancing the network:
              Trial  1: relative flow change = 0.000031
    14:45:00: Balanced after 1 trials
   
    14:50:00: Balancing the network:
              Trial  1: relative flow change = 0.000125
    14:50:00: Balanced after 1 trials
   
    14:55:00: Balancing the network:
              Trial  1: relative flow change = 0.000125
    14:55:00: Balanced after 1 trials
   
    15:00:00: Balancing the network:
              Trial  1: relative flow change = 0.001950
              Trial  2: relative flow change = 0.000000
    15:00:00: Balanced after 2 trials
   
    15:05:00: Balancing the network:
              Trial  1: relative flow change = 0.000126
    15:05:00: Balanced after 1 trials
   
    15:10:00: Balancing the network:
              Trial  1: relative flow change = 0.000126
    15:10:00: Balanced after 1 trials
   
    15:15:00: Balancing the network:
              Trial  1: relative flow change = 0.000126
    15:15:00: Balanced after 1 trials
   
    15:20:00: Balancing the network:
              Trial  1: relative flow change = 0.000126
    15:20:00: Balanced after 1 trials
   
    15:25:00: Balancing the network:
              Trial  1: relative flow change = 0.000126
    15:25:00: Balanced after 1 trials
   
    15:30:00: Balancing the network:
              Trial  1: relative flow change = 0.001963
              Trial  2: relative flow change = 0.000000
    15:30:00: Balanced after 2 trials
   
    15:35:00: Balancing the network:
              Trial  1: relative flow change = 0.000128
    15:35:00: Balanced after 1 trials
   
    15:40:00: Balancing the network:
              Trial  1: relative flow change = 0.000128
    15:40:00: Balanced after 1 trials
   
    15:45:00: Balancing the network:
              Trial  1: relative flow change = 0.000128
    15:45:00: Balanced after 1 trials
   
    15:50:00: Balancing the network:
              Trial  1: relative flow change = 0.000128
    15:50:00: Balanced after 1 trials
   
    15:55:00: Balancing the network:
              Trial  1: relative flow change = 0.000128
    15:55:00: Balanced after 1 trials
   
    16:00:00: Balancing the network:
              Trial  1: relative flow change = 0.001814
              Trial  2: relative flow change = 0.000000
    16:00:00: Balanced after 2 trials
   
    16:05:00: Balancing the network:
              Trial  1: relative flow change = 0.000130
    16:05:00: Balanced after 1 trials
   
    16:10:00: Balancing the network:
              Trial  1: relative flow change = 0.000130
    16:10:00: Balanced after 1 trials
   
    16:15:00: Balancing the network:
              Trial  1: relative flow change = 0.000130
    16:15:00: Balanced after 1 trials
   
    16:20:00: Balancing the network:
              Trial  1: relative flow change = 0.000130
    16:20:00: Balanced after 1 trials
   
    16:25:00: Balancing the network:
              Trial  1: relative flow change = 0.000130
    16:25:00: Balanced after 1 trials
   
    16:30:00: Balancing the network:
              Trial  1: relative flow change = 0.001607
              Trial  2: relative flow change = 0.000000
    16:30:00: Balanced after 2 trials
   
    16:35:00: Balancing the network:
              Trial  1: relative flow change = 0.000131
    16:35:00: Balanced after 1 trials
   
    16:40:00: Balancing the network:
              Trial  1: relative flow change = 0.000132
    16:40:00: Balanced after 1 trials
   
    16:45:00: Balancing the network:
              Trial  1: relative flow change = 0.000132
    16:45:00: Balanced after 1 trials
   
    16:50:00: Balancing the network:
              Trial  1: relative flow change = 0.000131
    16:50:00: Balanced after 1 trials
   
    16:55:00: Balancing the network:
              Trial  1: relative flow change = 0.000131
    16:55:00: Balanced after 1 trials
   
    17:00:00: Balancing the network:
              Trial  1: relative flow change = 0.001277
              Trial  2: relative flow change = 0.000000
    17:00:00: Balanced after 2 trials
   
    17:05:00: Balancing the network:
              Trial  1: relative flow change = 0.000133
    17:05:00: Balanced after 1 trials
   
    17:10:00: Balancing the network:
              Trial  1: relative flow change = 0.000133
    17:10:00: Balanced after 1 trials
   
    17:15:00: Balancing the network:
              Trial  1: relative flow change = 0.000133
    17:15:00: Balanced after 1 trials
   
    17:20:00: Balancing the network:
              Trial  1: relative flow change = 0.000133
    17:20:00: Balanced after 1 trials
   
    17:25:00: Balancing the network:
              Trial  1: relative flow change = 0.000133
    17:25:00: Balanced after 1 trials
   
    17:30:00: Balancing the network:
              Trial  1: relative flow change = 0.000825
    17:30:00: Balanced after 1 trials
   
    17:35:00: Balancing the network:
              Trial  1: relative flow change = 0.000133
    17:35:00: Balanced after 1 trials
   
    17:40:00: Balancing the network:
              Trial  1: relative flow change = 0.000133
    17:40:00: Balanced after 1 trials
   
    17:45:00: Balancing the network:
              Trial  1: relative flow change = 0.000133
    17:45:00: Balanced after 1 trials
   
    17:50:00: Balancing the network:
              Trial  1: relative flow change = 0.000133
    17:50:00: Balanced after 1 trials
   
    17:55:00: Balancing the network:
              Trial  1: relative flow change = 0.000133
    17:55:00: Balanced after 1 trials
   
    18:00:00: Balancing the network:
              Trial  1: relative flow change = 0.000774
    18:00:00: Balanced after 1 trials
   
    18:05:00: Balancing the network:
              Trial  1: relative flow change = 0.000133
    18:05:00: Balanced after 1 trials
   
    18:10:00: Balancing the network:
              Trial  1: relative flow change = 0.000133
    18:10:00: Balanced after 1 trials
   
    18:15:00: Balancing the network:
              Trial  1: relative flow change = 0.000133
    18:15:00: Balanced after 1 trials
   
    18:20:00: Balancing the network:
              Trial  1: relative flow change = 0.000133
    18:20:00: Balanced after 1 trials
   
    18:25:00: Balancing the network:
              Trial  1: relative flow change = 0.000133
    18:25:00: Balanced after 1 trials
   
    18:30:00: Balancing the network:
              Trial  1: relative flow change = 0.001597
              Trial  2: relative flow change = 0.000000
    18:30:00: Balanced after 2 trials
   
    18:35:00: Balancing the network:
              Trial  1: relative flow change = 0.000132
    18:35:00: Balanced after 1 trials
   
    18:40:00: Balancing the network:
              Trial  1: relative flow change = 0.000133
    18:40:00: Balanced after 1 trials
   
    18:45:00: Balancing the network:
              Trial  1: relative flow change = 0.000133
    18:45:00: Balanced after 1 trials
   
    18:50:00: Balancing the network:
              Trial  1: relative flow change = 0.000133
    18:50:00: Balanced after 1 trials
   
    18:55:00: Balancing the network:
              Trial  1: relative flow change = 0.000133
    18:55:00: Balanced after 1 trials
   
    19:00:00: Balancing the network:
              Trial  1: relative flow change = 0.002411
              Trial  2: relative flow change = 0.000000
    19:00:00: Balanced after 2 trials
   
    19:05:00: Balancing the network:
              Trial  1: relative flow change = 0.000131
    19:05:00: Balanced after 1 trials
   
    19:10:00: Balancing the network:
              Trial  1: relative flow change = 0.000131
    19:10:00: Balanced after 1 trials
   
    19:15:00: Balancing the network:
              Trial  1: relative flow change = 0.000131
    19:15:00: Balanced after 1 trials
   
    19:20:00: Balancing the network:
              Trial  1: relative flow change = 0.000131
    19:20:00: Balanced after 1 trials
   
    19:25:00: Balancing the network:
              Trial  1: relative flow change = 0.000131
    19:25:00: Balanced after 1 trials
   
    19:30:00: Balancing the network:
              Trial  1: relative flow change = 0.003137
              Trial  2: relative flow change = 0.000000
    19:30:00: Balanced after 2 trials
   
    19:31:28: Pump P1 changed by timer control
    19:31:28: Pump P1 changed by timer control
    19:31:28: Balancing the network:
              Trial  1: relative flow change = 0.000038
    19:31:28: Balanced after 1 trials
   
    19:35:00: Balancing the network:
              Trial  1: relative flow change = 0.000091
    19:35:00: Balanced after 1 trials
   
    19:40:00: Balancing the network:
              Trial  1: relative flow change = 0.000129
    19:40:00: Balanced after 1 trials
   
    19:45:00: Balancing the network:
              Trial  1: relative flow change = 0.000129
    19:45:00: Balanced after 1 trials
   
    19:50:00: Balancing the network:
              Trial  1: relative flow change = 0.000129
    19:50:00: Balanced after 1 trials
   
    19:55:00: Balancing the network:
              Trial  1: relative flow change = 0.000129
    19:55:00: Balanced after 1 trials
   
    20:00:00: Balancing the network:
              Trial  1: relative flow change = 0.003698
              Trial  2: relative flow change = 0.000000
    20:00:00: Balanced after 2 trials
   
    20:05:00: Balancing the network:
              Trial  1: relative flow change = 0.000127
    20:05:00: Balanced after 1 trials
   
    20:10:00: Balancing the network:
              Trial  1: relative flow change = 0.000127
    20:10:00: Balanced after 1 trials
   
    20:15:00: Balancing the network:
              Trial  1: relative flow change = 0.000127
    20:15:00: Balanced after 1 trials
   
    20:20:00: Balancing the network:
              Trial  1: relative flow change = 0.000127
    20:20:00: Balanced after 1 trials
   
    20:25:00: Balancing the network:
              Trial  1: relative flow change = 0.000127
    20:25:00: Balanced after 1 trials
   
    20:30:00: Balancing the network:
              Trial  1: relative flow change = 0.003987
              Trial  2: relative flow change = 0.000000
    20:30:00: Balanced after 2 trials
   
    20:31:00: Pump P1 changed by timer control
    20:31:00: Balancing the network:
              Trial  1: relative flow change = 5.491033
              Trial  2: relative flow change = 0.000007
    20:31:00: Balanced after 2 trials
    20:31:00: Reservoir Source is closed
    20:31:00: Tank Tank1 is emptying at 5.86 m
    20:31:00: Pump P1 changed from open to closed
   
    20:35:00: Balancing the network:
              Trial  1: relative flow change = 0.000000
    20:35:00: Balanced after 1 trials
   
    20:40:00: Balancing the network:
              Trial  1: relative flow change = 0.000000
    20:40:00: Balanced after 1 trials
   
    20:45:00: Balancing the network:
              Trial  1: relative flow change = 0.000000
    20:45:00: Balanced after 1 trials
   
    20:50:00: Balancing the network:
              Trial  1: relative flow change = 0.000000
    20:50:00: Balanced after 1 trials
   
    20:55:00: Balancing the network:
              Trial  1: relative flow change = 0.000000
    20:55:00: Balanced after 1 trials
   
    21:00:00: Balancing the network:
              Trial  1: relative flow change = 0.021535
              Trial  2: relative flow change = 0.000000
    21:00:00: Balanced after 2 trials
   
    21:05:00: Balancing the network:
              Trial  1: relative flow change = 0.000000
    21:05:00: Balanced after 1 trials
   
    21:10:00: Balancing the network:
              Trial  1: relative flow change = 0.000000
    21:10:00: Balanced after 1 trials
   
    21:15:00: Balancing the network:
              Trial  1: relative flow change = 0.000000
    21:15:00: Balanced after 1 trials
   
    21:20:00: Balancing the network:
              Trial  1: relative flow change = 0.000000
    21:20:00: Balanced after 1 trials
   
    21:25:00: Balancing the network:
              Trial  1: relative flow change = 0.000000
    21:25:00: Balanced after 1 trials
   
    21:30:00: Balancing the network:
              Trial  1: relative flow change = 0.017652
              Trial  2: relative flow change = 0.000000
    21:30:00: Balanced after 2 trials
   
    21:35:00: Balancing the network:
              Trial  1: relative flow change = 0.000000
    21:35:00: Balanced after 1 trials
   
    21:40:00: Balancing the network:
              Trial  1: relative flow change = 0.000000
    21:40:00: Balanced after 1 trials
   
    21:45:00: Balancing the network:
              Trial  1: relative flow change = 0.000000
    21:45:00: Balanced after 1 trials
   
    21:50:00: Balancing the network:
              Trial  1: relative flow change = 0.000000
    21:50:00: Balanced after 1 trials
   
    21:55:00: Balancing the network:
              Trial  1: relative flow change = 0.000000
    21:55:00: Balanced after 1 trials
   
    22:00:00: Balancing the network:
              Trial  1: relative flow change = 0.009885
              Trial  2: relative flow change = 0.000000
    22:00:00: Balanced after 2 trials
   
    22:05:00: Balancing the network:
              Trial  1: relative flow change = 0.000000
    22:05:00: Balanced after 1 trials
   
    22:10:00: Balancing the network:
              Trial  1: relative flow change = 0.000000
    22:10:00: Balanced after 1 trials
   
    22:15:00: Balancing the network:
              Trial  1: relative flow change = 0.000000
    22:15:00: Balanced after 1 trials
   
    22:20:00: Balancing the network:
              Trial  1: relative flow change = 0.000000
    22:20:00: Balanced after 1 trials
   
    22:25:00: Balancing the network:
              Trial  1: relative flow change = 0.000000
    22:25:00: Balanced after 1 trials
   
    22:30:00: Balancing the network:
              Trial  1: relative flow change = 0.020689
              Trial  2: relative flow change = 0.000000
    22:30:00: Balanced after 2 trials
   
    22:35:00: Balancing the network:
              Trial  1: relative flow change = 0.000000
    22:35:00: Balanced after 1 trials
   
    22:40:00: Balancing the network:
              Trial  1: relative flow change = 0.000000
    22:40:00: Balanced after 1 trials
   
    22:45:00: Balancing the network:
              Trial  1: relative flow change = 0.000000
    22:45:00: Balanced after 1 trials
   
    22:50:00: Balancing the network:
              Trial  1: relative flow change = 0.000000
    22:50:00: Balanced after 1 trials
   
    22:55:00: Balancing the network:
              Trial  1: relative flow change = 0.000000
    22:55:00: Balanced after 1 trials
   
    23:00:00: Balancing the network:
              Trial  1: relative flow change = 0.043870
              Trial  2: relative flow change = 0.000000
    23:00:00: Balanced after 2 trials
   
    23:05:00: Balancing the network:
              Trial  1: relative flow change = 0.000000
    23:05:00: Balanced after 1 trials
   
    23:10:00: Balancing the network:
              Trial  1: relative flow change = 0.000000
    23:10:00: Balanced after 1 trials
   
    23:15:00: Balancing the network:
              Trial  1: relative flow change = 0.000000
    23:15:00: Balanced after 1 trials
   
    23:20:00: Balancing the network:
              Trial  1: relative flow change = 0.000000
    23:20:00: Balanced after 1 trials
   
    23:25:00: Balancing the network:
              Trial  1: relative flow change = 0.000000
    23:25:00: Balanced after 1 trials
   
    23:30:00: Balancing the network:
              Trial  1: relative flow change = 0.080189
              Trial  2: relative flow change = 0.000000
    23:30:00: Balanced after 2 trials
   
    23:35:00: Balancing the network:
              Trial  1: relative flow change = 0.000000
    23:35:00: Balanced after 1 trials
   
    23:40:00: Balancing the network:
              Trial  1: relative flow change = 0.000000
    23:40:00: Balanced after 1 trials
   
    23:45:00: Balancing the network:
              Trial  1: relative flow change = 0.000000
    23:45:00: Balanced after 1 trials
   
    23:50:00: Balancing the network:
              Trial  1: relative flow change = 0.000000
    23:50:00: Balanced after 1 trials
   
    23:55:00: Balancing the network:
              Trial  1: relative flow change = 0.000000
    23:55:00: Balanced after 1 trials
   
    24:00:00: Balancing the network:
              Trial  1: relative flow change = 0.008266
              Trial  2: relative flow change = 0.000000
    24:00:00: Balanced after 2 trials
   
  Analysis ended Mon Apr 14 09:36:36 2025
