  Page 1                                    Mon Jul 21 14:49:27 2025

  ******************************************************************
  *                           E P A N E T                          *
  *                   Hydraulic and Water Quality                  *
  *                   Analysis for Pipe Networks                   *
  *                         Version 2.00.12                        *
  ******************************************************************
  
  Analysis begun Mon Jul 21 14:49:27 2025

   
  Hydraulic Status:
  -----------------------------------------------------------------------
     0:00:00: Pump P1 changed by timer control
     0:00:00: Balancing the network:
              Trial  1: relative flow change = 2.930009
              Trial  2: relative flow change = 0.000002
     0:00:00: Balanced after 2 trials
     0:00:00: Reservoir Source is closed
     0:00:00: Tank Tank1 is emptying at 4.00 m
     0:00:00: Pump P1 closed
   
     0:05:00: Balancing the network:
              Trial  1: relative flow change = 0.000000
     0:05:00: Balanced after 1 trials
   
     0:10:00: Balancing the network:
              Trial  1: relative flow change = 0.000000
     0:10:00: Balanced after 1 trials
   
     0:15:00: Balancing the network:
              Trial  1: relative flow change = 0.000000
     0:15:00: Balanced after 1 trials
   
     0:20:00: Balancing the network:
              Trial  1: relative flow change = 0.000000
     0:20:00: Balanced after 1 trials
   
     0:25:00: Balancing the network:
              Trial  1: relative flow change = 0.000000
     0:25:00: Balanced after 1 trials
   
     0:30:00: Balancing the network:
              Trial  1: relative flow change = 0.023722
              Trial  2: relative flow change = 0.000000
     0:30:00: Balanced after 2 trials
   
     0:35:00: Balancing the network:
              Trial  1: relative flow change = 0.000000
     0:35:00: Balanced after 1 trials
   
     0:40:00: Balancing the network:
              Trial  1: relative flow change = 0.000000
     0:40:00: Balanced after 1 trials
   
     0:45:00: Balancing the network:
              Trial  1: relative flow change = 0.000000
     0:45:00: Balanced after 1 trials
   
     0:50:00: Balancing the network:
              Trial  1: relative flow change = 0.000000
     0:50:00: Balanced after 1 trials
   
     0:55:00: Balancing the network:
              Trial  1: relative flow change = 0.000000
     0:55:00: Balanced after 1 trials
   
     1:00:00: Balancing the network:
              Trial  1: relative flow change = 0.035211
              Trial  2: relative flow change = 0.000000
     1:00:00: Balanced after 2 trials
   
     1:05:00: Balancing the network:
              Trial  1: relative flow change = 0.000000
     1:05:00: Balanced after 1 trials
   
     1:10:00: Balancing the network:
              Trial  1: relative flow change = 0.000000
     1:10:00: Balanced after 1 trials
   
     1:15:00: Balancing the network:
              Trial  1: relative flow change = 0.000000
     1:15:00: Balanced after 1 trials
   
     1:20:00: Balancing the network:
              Trial  1: relative flow change = 0.000000
     1:20:00: Balanced after 1 trials
   
     1:25:00: Balancing the network:
              Trial  1: relative flow change = 0.000000
     1:25:00: Balanced after 1 trials
   
     1:30:00: Balancing the network:
              Trial  1: relative flow change = 0.041630
              Trial  2: relative flow change = 0.000000
     1:30:00: Balanced after 2 trials
   
     1:35:00: Balancing the network:
              Trial  1: relative flow change = 0.000000
     1:35:00: Balanced after 1 trials
   
     1:40:00: Balancing the network:
              Trial  1: relative flow change = 0.000000
     1:40:00: Balanced after 1 trials
   
     1:45:00: Balancing the network:
              Trial  1: relative flow change = 0.000000
     1:45:00: Balanced after 1 trials
   
     1:50:00: Balancing the network:
              Trial  1: relative flow change = 0.000000
     1:50:00: Balanced after 1 trials
   
     1:55:00: Balancing the network:
              Trial  1: relative flow change = 0.000000
     1:55:00: Balanced after 1 trials
   
     2:00:00: Balancing the network:
              Trial  1: relative flow change = 0.043581
              Trial  2: relative flow change = 0.000000
     2:00:00: Balanced after 2 trials
   
     2:05:00: Balancing the network:
              Trial  1: relative flow change = 0.000000
     2:05:00: Balanced after 1 trials
   
     2:10:00: Balancing the network:
              Trial  1: relative flow change = 0.000000
     2:10:00: Balanced after 1 trials
   
     2:15:00: Balancing the network:
              Trial  1: relative flow change = 0.000000
     2:15:00: Balanced after 1 trials
   
     2:20:00: Balancing the network:
              Trial  1: relative flow change = 0.000000
     2:20:00: Balanced after 1 trials
   
     2:25:00: Balancing the network:
              Trial  1: relative flow change = 0.000000
     2:25:00: Balanced after 1 trials
   
     2:30:00: Balancing the network:
              Trial  1: relative flow change = 0.041640
              Trial  2: relative flow change = 0.000000
     2:30:00: Balanced after 2 trials
   
     2:35:00: Balancing the network:
              Trial  1: relative flow change = 0.000000
     2:35:00: Balanced after 1 trials
   
     2:40:00: Balancing the network:
              Trial  1: relative flow change = 0.000000
     2:40:00: Balanced after 1 trials
   
     2:45:00: Balancing the network:
              Trial  1: relative flow change = 0.000000
     2:45:00: Balanced after 1 trials
   
     2:50:00: Balancing the network:
              Trial  1: relative flow change = 0.000000
     2:50:00: Balanced after 1 trials
   
     2:55:00: Balancing the network:
              Trial  1: relative flow change = 0.000000
     2:55:00: Balanced after 1 trials
   
     3:00:00: Balancing the network:
              Trial  1: relative flow change = 0.036405
              Trial  2: relative flow change = 0.000000
     3:00:00: Balanced after 2 trials
   
     3:05:00: Balancing the network:
              Trial  1: relative flow change = 0.000000
     3:05:00: Balanced after 1 trials
   
     3:10:00: Balancing the network:
              Trial  1: relative flow change = 0.000000
     3:10:00: Balanced after 1 trials
   
     3:15:00: Balancing the network:
              Trial  1: relative flow change = 0.000000
     3:15:00: Balanced after 1 trials
   
     3:20:00: Balancing the network:
              Trial  1: relative flow change = 0.000000
     3:20:00: Balanced after 1 trials
   
     3:25:00: Balancing the network:
              Trial  1: relative flow change = 0.000000
     3:25:00: Balanced after 1 trials
   
     3:30:00: Balancing the network:
              Trial  1: relative flow change = 0.028671
              Trial  2: relative flow change = 0.000000
     3:30:00: Balanced after 2 trials
   
     3:35:00: Balancing the network:
              Trial  1: relative flow change = 0.000000
     3:35:00: Balanced after 1 trials
   
     3:40:00: Balancing the network:
              Trial  1: relative flow change = 0.000000
     3:40:00: Balanced after 1 trials
   
     3:45:00: Balancing the network:
              Trial  1: relative flow change = 0.000000
     3:45:00: Balanced after 1 trials
   
     3:50:00: Balancing the network:
              Trial  1: relative flow change = 0.000000
     3:50:00: Balanced after 1 trials
   
     3:55:00: Balancing the network:
              Trial  1: relative flow change = 0.000000
     3:55:00: Balanced after 1 trials
   
     4:00:00: Balancing the network:
              Trial  1: relative flow change = 0.019308
              Trial  2: relative flow change = 0.000000
     4:00:00: Balanced after 2 trials
   
     4:05:00: Balancing the network:
              Trial  1: relative flow change = 0.000000
     4:05:00: Balanced after 1 trials
   
     4:10:00: Balancing the network:
              Trial  1: relative flow change = 0.000000
     4:10:00: Balanced after 1 trials
   
     4:15:00: Balancing the network:
              Trial  1: relative flow change = 0.000000
     4:15:00: Balanced after 1 trials
   
     4:20:00: Balancing the network:
              Trial  1: relative flow change = 0.000000
     4:20:00: Balanced after 1 trials
   
     4:25:00: Balancing the network:
              Trial  1: relative flow change = 0.000000
     4:25:00: Balanced after 1 trials
   
     4:30:00: Balancing the network:
              Trial  1: relative flow change = 0.009286
              Trial  2: relative flow change = 0.000000
     4:30:00: Balanced after 2 trials
   
     4:35:00: Balancing the network:
              Trial  1: relative flow change = 0.000000
     4:35:00: Balanced after 1 trials
   
     4:40:00: Balancing the network:
              Trial  1: relative flow change = 0.000000
     4:40:00: Balanced after 1 trials
   
     4:45:00: Balancing the network:
              Trial  1: relative flow change = 0.000000
     4:45:00: Balanced after 1 trials
   
     4:50:00: Balancing the network:
              Trial  1: relative flow change = 0.000000
     4:50:00: Balanced after 1 trials
   
     4:55:00: Balancing the network:
              Trial  1: relative flow change = 0.000000
     4:55:00: Balanced after 1 trials
   
     5:00:00: Balancing the network:
              Trial  1: relative flow change = 0.010027
              Trial  2: relative flow change = 0.000000
     5:00:00: Balanced after 2 trials
   
     5:05:00: Balancing the network:
              Trial  1: relative flow change = 0.000000
     5:05:00: Balanced after 1 trials
   
     5:10:00: Balancing the network:
              Trial  1: relative flow change = 0.000000
     5:10:00: Balanced after 1 trials
   
     5:15:00: Balancing the network:
              Trial  1: relative flow change = 0.000000
     5:15:00: Balanced after 1 trials
   
     5:20:00: Balancing the network:
              Trial  1: relative flow change = 0.000000
     5:20:00: Balanced after 1 trials
   
     5:25:00: Balancing the network:
              Trial  1: relative flow change = 0.000000
     5:25:00: Balanced after 1 trials
   
     5:30:00: Balancing the network:
              Trial  1: relative flow change = 0.018995
              Trial  2: relative flow change = 0.000000
     5:30:00: Balanced after 2 trials
   
     5:35:00: Balancing the network:
              Trial  1: relative flow change = 0.000000
     5:35:00: Balanced after 1 trials
   
     5:40:00: Balancing the network:
              Trial  1: relative flow change = 0.000000
     5:40:00: Balanced after 1 trials
   
     5:45:00: Balancing the network:
              Trial  1: relative flow change = 0.000000
     5:45:00: Balanced after 1 trials
   
     5:50:00: Balancing the network:
              Trial  1: relative flow change = 0.000000
     5:50:00: Balanced after 1 trials
   
     5:55:00: Balancing the network:
              Trial  1: relative flow change = 0.000000
     5:55:00: Balanced after 1 trials
   
     6:00:00: Balancing the network:
              Trial  1: relative flow change = 0.026307
              Trial  2: relative flow change = 0.000000
     6:00:00: Balanced after 2 trials
   
     6:05:00: Balancing the network:
              Trial  1: relative flow change = 0.000000
     6:05:00: Balanced after 1 trials
   
     6:10:00: Balancing the network:
              Trial  1: relative flow change = 0.000000
     6:10:00: Balanced after 1 trials
   
     6:15:00: Balancing the network:
              Trial  1: relative flow change = 0.000000
     6:15:00: Balanced after 1 trials
   
  WARNING: Negative pressures at 6:15:00 hrs.
  
     6:20:00: Balancing the network:
              Trial  1: relative flow change = 0.000000
     6:20:00: Balanced after 1 trials
   
  WARNING: Negative pressures at 6:20:00 hrs.
  
     6:25:00: Balancing the network:
              Trial  1: relative flow change = 0.000000
     6:25:00: Balanced after 1 trials
   
  WARNING: Negative pressures at 6:25:00 hrs.
  
     6:30:00: Balancing the network:
              Trial  1: relative flow change = 0.031688
              Trial  2: relative flow change = 0.000000
     6:30:00: Balanced after 2 trials
   
  WARNING: Negative pressures at 6:30:00 hrs.
  
     6:35:00: Balancing the network:
              Trial  1: relative flow change = 0.000000
     6:35:00: Balanced after 1 trials
   
  WARNING: Negative pressures at 6:35:00 hrs.
  
     6:40:00: Balancing the network:
              Trial  1: relative flow change = 0.000000
     6:40:00: Balanced after 1 trials
   
  WARNING: Negative pressures at 6:40:00 hrs.
  
     6:45:00: Balancing the network:
              Trial  1: relative flow change = 0.000000
     6:45:00: Balanced after 1 trials
   
  WARNING: Negative pressures at 6:45:00 hrs.
  
     6:50:00: Balancing the network:
              Trial  1: relative flow change = 0.000000
     6:50:00: Balanced after 1 trials
   
  WARNING: Negative pressures at 6:50:00 hrs.
  
     6:55:00: Balancing the network:
              Trial  1: relative flow change = 0.000000
     6:55:00: Balanced after 1 trials
   
  WARNING: Negative pressures at 6:55:00 hrs.
  
     7:00:00: Balancing the network:
              Trial  1: relative flow change = 0.035153
              Trial  2: relative flow change = 0.000000
     7:00:00: Balanced after 2 trials
   
  WARNING: Negative pressures at 7:00:00 hrs.
  
     7:05:00: Balancing the network:
              Trial  1: relative flow change = 0.000000
     7:05:00: Balanced after 1 trials
   
  WARNING: Negative pressures at 7:05:00 hrs.
  
     7:10:00: Balancing the network:
              Trial  1: relative flow change = 0.000000
     7:10:00: Balanced after 1 trials
   
  WARNING: Negative pressures at 7:10:00 hrs.
  
     7:15:00: Balancing the network:
              Trial  1: relative flow change = 0.000000
     7:15:00: Balanced after 1 trials
   
  WARNING: Negative pressures at 7:15:00 hrs.
  
     7:20:00: Balancing the network:
              Trial  1: relative flow change = 0.000000
     7:20:00: Balanced after 1 trials
   
  WARNING: Negative pressures at 7:20:00 hrs.
  
     7:25:00: Balancing the network:
              Trial  1: relative flow change = 0.000000
     7:25:00: Balanced after 1 trials
   
  WARNING: Negative pressures at 7:25:00 hrs.
  
     7:30:00: Balancing the network:
              Trial  1: relative flow change = 0.036824
              Trial  2: relative flow change = 0.000000
     7:30:00: Balanced after 2 trials
   
  WARNING: Negative pressures at 7:30:00 hrs.
  
     7:35:00: Balancing the network:
              Trial  1: relative flow change = 0.000000
     7:35:00: Balanced after 1 trials
   
  WARNING: Negative pressures at 7:35:00 hrs.
  
     7:40:00: Balancing the network:
              Trial  1: relative flow change = 0.000000
     7:40:00: Balanced after 1 trials
   
  WARNING: Negative pressures at 7:40:00 hrs.
  
     7:45:00: Balancing the network:
              Trial  1: relative flow change = 0.000000
     7:45:00: Balanced after 1 trials
   
  WARNING: Negative pressures at 7:45:00 hrs.
  
     7:50:00: Balancing the network:
              Trial  1: relative flow change = 0.000000
     7:50:00: Balanced after 1 trials
   
  WARNING: Negative pressures at 7:50:00 hrs.
  
     7:55:00: Balancing the network:
              Trial  1: relative flow change = 0.000000
     7:55:00: Balanced after 1 trials
   
  WARNING: Negative pressures at 7:55:00 hrs.
  
     8:00:00: Balancing the network:
              Trial  1: relative flow change = 0.036889
              Trial  2: relative flow change = 0.000000
     8:00:00: Balanced after 2 trials
   
  WARNING: Negative pressures at 8:00:00 hrs.
  
     8:05:00: Balancing the network:
              Trial  1: relative flow change = 0.000000
     8:05:00: Balanced after 1 trials
   
  WARNING: Negative pressures at 8:05:00 hrs.
  
     8:10:00: Balancing the network:
              Trial  1: relative flow change = 0.000000
     8:10:00: Balanced after 1 trials
   
  WARNING: Negative pressures at 8:10:00 hrs.
  
     8:15:00: Balancing the network:
              Trial  1: relative flow change = 0.000000
     8:15:00: Balanced after 1 trials
   
  WARNING: Negative pressures at 8:15:00 hrs.
  
     8:20:00: Balancing the network:
              Trial  1: relative flow change = 0.000000
     8:20:00: Balanced after 1 trials
   
  WARNING: Negative pressures at 8:20:00 hrs.
  
     8:25:00: Balancing the network:
              Trial  1: relative flow change = 0.000000
     8:25:00: Balanced after 1 trials
   
  WARNING: Negative pressures at 8:25:00 hrs.
  
     8:30:00: Balancing the network:
              Trial  1: relative flow change = 0.035637
              Trial  2: relative flow change = 0.000000
     8:30:00: Balanced after 2 trials
   
  WARNING: Negative pressures at 8:30:00 hrs.
  
     8:35:00: Balancing the network:
              Trial  1: relative flow change = 0.000000
     8:35:00: Balanced after 1 trials
   
  WARNING: Negative pressures at 8:35:00 hrs.
  
     8:40:00: Balancing the network:
              Trial  1: relative flow change = 0.000000
     8:40:00: Balanced after 1 trials
   
  WARNING: Negative pressures at 8:40:00 hrs.
  
     8:45:00: Balancing the network:
              Trial  1: relative flow change = 0.000000
     8:45:00: Balanced after 1 trials
   
  WARNING: Negative pressures at 8:45:00 hrs.
  
     8:50:00: Balancing the network:
              Trial  1: relative flow change = 0.000000
     8:50:00: Balanced after 1 trials
   
  WARNING: Negative pressures at 8:50:00 hrs.
  
     8:55:00: Balancing the network:
              Trial  1: relative flow change = 0.000000
     8:55:00: Balanced after 1 trials
   
  WARNING: Negative pressures at 8:55:00 hrs.
  
     9:00:00: Balancing the network:
              Trial  1: relative flow change = 0.033285
              Trial  2: relative flow change = 0.000000
     9:00:00: Balanced after 2 trials
   
  WARNING: Negative pressures at 9:00:00 hrs.
  
     9:05:00: Balancing the network:
              Trial  1: relative flow change = 0.000000
     9:05:00: Balanced after 1 trials
   
  WARNING: Negative pressures at 9:05:00 hrs.
  
     9:10:00: Balancing the network:
              Trial  1: relative flow change = 0.000000
     9:10:00: Balanced after 1 trials
   
  WARNING: Negative pressures at 9:10:00 hrs.
  
     9:15:00: Balancing the network:
              Trial  1: relative flow change = 0.000000
     9:15:00: Balanced after 1 trials
   
  WARNING: Negative pressures at 9:15:00 hrs.
  
     9:20:00: Balancing the network:
              Trial  1: relative flow change = 0.000000
     9:20:00: Balanced after 1 trials
   
  WARNING: Negative pressures at 9:20:00 hrs.
  
     9:25:00: Balancing the network:
              Trial  1: relative flow change = 0.000000
     9:25:00: Balanced after 1 trials
   
  WARNING: Negative pressures at 9:25:00 hrs.
  
     9:30:00: Balancing the network:
              Trial  1: relative flow change = 0.030128
              Trial  2: relative flow change = 0.000000
     9:30:00: Balanced after 2 trials
   
  WARNING: Negative pressures at 9:30:00 hrs.
  
     9:35:00: Balancing the network:
              Trial  1: relative flow change = 0.000000
     9:35:00: Balanced after 1 trials
   
  WARNING: Negative pressures at 9:35:00 hrs.
  
     9:40:00: Balancing the network:
              Trial  1: relative flow change = 0.000000
     9:40:00: Balanced after 1 trials
   
  WARNING: Negative pressures at 9:40:00 hrs.
  
     9:45:00: Balancing the network:
              Trial  1: relative flow change = 0.000000
     9:45:00: Balanced after 1 trials
   
  WARNING: Negative pressures at 9:45:00 hrs.
  
     9:50:00: Balancing the network:
              Trial  1: relative flow change = 0.000000
     9:50:00: Balanced after 1 trials
   
  WARNING: Negative pressures at 9:50:00 hrs.
  
     9:55:00: Balancing the network:
              Trial  1: relative flow change = 0.000000
     9:55:00: Balanced after 1 trials
   
  WARNING: Negative pressures at 9:55:00 hrs.
  
    10:00:00: Balancing the network:
              Trial  1: relative flow change = 0.026354
              Trial  2: relative flow change = 0.000000
    10:00:00: Balanced after 2 trials
   
  WARNING: Negative pressures at 10:00:00 hrs.
  
    10:05:00: Balancing the network:
              Trial  1: relative flow change = 0.000000
    10:05:00: Balanced after 1 trials
   
  WARNING: Negative pressures at 10:05:00 hrs.
  
    10:10:00: Balancing the network:
              Trial  1: relative flow change = 0.000000
    10:10:00: Balanced after 1 trials
   
  WARNING: Negative pressures at 10:10:00 hrs.
  
    10:15:00: Balancing the network:
              Trial  1: relative flow change = 0.000000
    10:15:00: Balanced after 1 trials
   
  WARNING: Negative pressures at 10:15:00 hrs.
  
    10:20:00: Balancing the network:
              Trial  1: relative flow change = 0.000000
    10:20:00: Balanced after 1 trials
   
  WARNING: Negative pressures at 10:20:00 hrs.
  
    10:25:00: Balancing the network:
              Trial  1: relative flow change = 0.000000
    10:25:00: Balanced after 1 trials
   
  WARNING: Negative pressures at 10:25:00 hrs.
  
    10:30:00: Balancing the network:
              Trial  1: relative flow change = 0.022160
              Trial  2: relative flow change = 0.000000
    10:30:00: Balanced after 2 trials
   
  WARNING: Negative pressures at 10:30:00 hrs.
  
    10:35:00: Balancing the network:
              Trial  1: relative flow change = 0.000000
    10:35:00: Balanced after 1 trials
   
  WARNING: Negative pressures at 10:35:00 hrs.
  
    10:40:00: Balancing the network:
              Trial  1: relative flow change = 0.000000
    10:40:00: Balanced after 1 trials
   
  WARNING: Negative pressures at 10:40:00 hrs.
  
    10:45:00: Balancing the network:
              Trial  1: relative flow change = 0.000000
    10:45:00: Balanced after 1 trials
   
  WARNING: Negative pressures at 10:45:00 hrs.
  
    10:50:00: Balancing the network:
              Trial  1: relative flow change = 0.000000
    10:50:00: Balanced after 1 trials
   
  WARNING: Negative pressures at 10:50:00 hrs.
  
    10:55:00: Balancing the network:
              Trial  1: relative flow change = 0.000000
    10:55:00: Balanced after 1 trials
   
  WARNING: Negative pressures at 10:55:00 hrs.
  
    11:00:00: Balancing the network:
              Trial  1: relative flow change = 0.017720
              Trial  2: relative flow change = 0.000000
    11:00:00: Balanced after 2 trials
   
  WARNING: Negative pressures at 11:00:00 hrs.
  
    11:05:00: Balancing the network:
              Trial  1: relative flow change = 0.000000
    11:05:00: Balanced after 1 trials
   
  WARNING: Negative pressures at 11:05:00 hrs.
  
    11:10:00: Balancing the network:
              Trial  1: relative flow change = 0.000000
    11:10:00: Balanced after 1 trials
   
  WARNING: Negative pressures at 11:10:00 hrs.
  
    11:15:00: Balancing the network:
              Trial  1: relative flow change = 0.000000
    11:15:00: Balanced after 1 trials
   
  WARNING: Negative pressures at 11:15:00 hrs.
  
    11:20:00: Balancing the network:
              Trial  1: relative flow change = 0.000000
    11:20:00: Balanced after 1 trials
   
  WARNING: Negative pressures at 11:20:00 hrs.
  
    11:25:00: Balancing the network:
              Trial  1: relative flow change = 0.000000
    11:25:00: Balanced after 1 trials
   
  WARNING: Negative pressures at 11:25:00 hrs.
  
    11:30:00: Balancing the network:
              Trial  1: relative flow change = 0.013196
              Trial  2: relative flow change = 0.000000
    11:30:00: Balanced after 2 trials
   
  WARNING: Negative pressures at 11:30:00 hrs.
  
    11:35:00: Balancing the network:
              Trial  1: relative flow change = 0.000000
    11:35:00: Balanced after 1 trials
   
  WARNING: Negative pressures at 11:35:00 hrs.
  
    11:40:00: Balancing the network:
              Trial  1: relative flow change = 0.000000
    11:40:00: Balanced after 1 trials
   
  WARNING: Negative pressures at 11:40:00 hrs.
  
    11:45:00: Balancing the network:
              Trial  1: relative flow change = 0.000000
    11:45:00: Balanced after 1 trials
   
  WARNING: Negative pressures at 11:45:00 hrs.
  
    11:50:00: Balancing the network:
              Trial  1: relative flow change = 0.000000
    11:50:00: Balanced after 1 trials
   
  WARNING: Negative pressures at 11:50:00 hrs.
  
    11:55:00: Balancing the network:
              Trial  1: relative flow change = 0.000000
    11:55:00: Balanced after 1 trials
   
  WARNING: Negative pressures at 11:55:00 hrs.
  
    12:00:00: Balancing the network:
              Trial  1: relative flow change = 0.008712
              Trial  2: relative flow change = 0.000000
    12:00:00: Balanced after 2 trials
   
  WARNING: Negative pressures at 12:00:00 hrs.
  
    12:05:00: Balancing the network:
              Trial  1: relative flow change = 0.000000
    12:05:00: Balanced after 1 trials
   
  WARNING: Negative pressures at 12:05:00 hrs.
  
    12:10:00: Balancing the network:
              Trial  1: relative flow change = 0.000000
    12:10:00: Balanced after 1 trials
   
  WARNING: Negative pressures at 12:10:00 hrs.
  
    12:15:00: Balancing the network:
              Trial  1: relative flow change = 0.000000
    12:15:00: Balanced after 1 trials
   
  WARNING: Negative pressures at 12:15:00 hrs.
  
    12:19:55: Pump P1 changed by timer control
    12:19:55: Balancing the network:
              Trial  1: relative flow change = 0.992955
              Trial  2: relative flow change = 0.969804
              Trial  3: relative flow change = 0.921258
              Trial  4: relative flow change = 0.787919
              Trial  5: relative flow change = 0.498043
              Trial  6: relative flow change = 0.159796
              Trial  7: relative flow change = 0.014704
              Trial  8: relative flow change = 0.000129
    12:19:55: Balanced after 8 trials
    12:19:55: Reservoir Source is emptying
    12:19:55: Tank Tank1 is filling at -3.24 m
    12:19:55: Pump P1 changed from closed to open
   
  WARNING: Negative pressures at 12:19:55 hrs.
  
    12:20:00: Balancing the network:
              Trial  1: relative flow change = 0.000002
    12:20:00: Balanced after 1 trials
   
  WARNING: Negative pressures at 12:20:00 hrs.
  
    12:25:00: Balancing the network:
              Trial  1: relative flow change = 0.000122
    12:25:00: Balanced after 1 trials
   
  WARNING: Negative pressures at 12:25:00 hrs.
  
    12:25:18: Pump P1 changed by timer control
    12:25:18: Balancing the network:
              Trial  1: relative flow change = 5.496743
              Trial  2: relative flow change = 0.000007
    12:25:18: Balanced after 2 trials
    12:25:18: Reservoir Source is closed
    12:25:18: Tank Tank1 is emptying at -3.19 m
    12:25:18: Pump P1 changed from open to closed
   
  WARNING: Negative pressures at 12:25:18 hrs.
  
    12:30:00: Balancing the network:
              Trial  1: relative flow change = 0.004394
              Trial  2: relative flow change = 0.000000
    12:30:00: Balanced after 2 trials
   
  WARNING: Negative pressures at 12:30:00 hrs.
  
    12:35:00: Balancing the network:
              Trial  1: relative flow change = 0.000000
    12:35:00: Balanced after 1 trials
   
  WARNING: Negative pressures at 12:35:00 hrs.
  
    12:40:00: Balancing the network:
              Trial  1: relative flow change = 0.000000
    12:40:00: Balanced after 1 trials
   
  WARNING: Negative pressures at 12:40:00 hrs.
  
    12:45:00: Balancing the network:
              Trial  1: relative flow change = 0.000000
    12:45:00: Balanced after 1 trials
   
  WARNING: Negative pressures at 12:45:00 hrs.
  
    12:50:00: Balancing the network:
              Trial  1: relative flow change = 0.000000
    12:50:00: Balanced after 1 trials
   
  WARNING: Negative pressures at 12:50:00 hrs.
  
    12:55:00: Balancing the network:
              Trial  1: relative flow change = 0.000000
    12:55:00: Balanced after 1 trials
   
  WARNING: Negative pressures at 12:55:00 hrs.
  
    13:00:00: Balancing the network:
              Trial  1: relative flow change = 0.003567
              Trial  2: relative flow change = 0.000000
    13:00:00: Balanced after 2 trials
   
  WARNING: Negative pressures at 13:00:00 hrs.
  
    13:05:00: Balancing the network:
              Trial  1: relative flow change = 0.000000
    13:05:00: Balanced after 1 trials
   
  WARNING: Negative pressures at 13:05:00 hrs.
  
    13:10:00: Balancing the network:
              Trial  1: relative flow change = 0.000000
    13:10:00: Balanced after 1 trials
   
  WARNING: Negative pressures at 13:10:00 hrs.
  
    13:15:00: Balancing the network:
              Trial  1: relative flow change = 0.000000
    13:15:00: Balanced after 1 trials
   
  WARNING: Negative pressures at 13:15:00 hrs.
  
    13:20:00: Balancing the network:
              Trial  1: relative flow change = 0.000000
    13:20:00: Balanced after 1 trials
   
  WARNING: Negative pressures at 13:20:00 hrs.
  
    13:25:00: Balancing the network:
              Trial  1: relative flow change = 0.000000
    13:25:00: Balanced after 1 trials
   
  WARNING: Negative pressures at 13:25:00 hrs.
  
    13:30:00: Balancing the network:
              Trial  1: relative flow change = 0.006561
              Trial  2: relative flow change = 0.000000
    13:30:00: Balanced after 2 trials
   
  WARNING: Negative pressures at 13:30:00 hrs.
  
    13:35:00: Balancing the network:
              Trial  1: relative flow change = 0.000000
    13:35:00: Balanced after 1 trials
   
  WARNING: Negative pressures at 13:35:00 hrs.
  
    13:40:00: Balancing the network:
              Trial  1: relative flow change = 0.000000
    13:40:00: Balanced after 1 trials
   
  WARNING: Negative pressures at 13:40:00 hrs.
  
    13:45:00: Balancing the network:
              Trial  1: relative flow change = 0.000000
    13:45:00: Balanced after 1 trials
   
  WARNING: Negative pressures at 13:45:00 hrs.
  
    13:50:00: Balancing the network:
              Trial  1: relative flow change = 0.000000
    13:50:00: Balanced after 1 trials
   
  WARNING: Negative pressures at 13:50:00 hrs.
  
    13:55:00: Balancing the network:
              Trial  1: relative flow change = 0.000000
    13:55:00: Balanced after 1 trials
   
  WARNING: Negative pressures at 13:55:00 hrs.
  
    14:00:00: Balancing the network:
              Trial  1: relative flow change = 0.008949
              Trial  2: relative flow change = 0.000000
    14:00:00: Balanced after 2 trials
   
  WARNING: Negative pressures at 14:00:00 hrs.
  
    14:05:00: Balancing the network:
              Trial  1: relative flow change = 0.000000
    14:05:00: Balanced after 1 trials
   
  WARNING: Negative pressures at 14:05:00 hrs.
  
    14:10:00: Balancing the network:
              Trial  1: relative flow change = 0.000000
    14:10:00: Balanced after 1 trials
   
  WARNING: Negative pressures at 14:10:00 hrs.
  
    14:15:00: Balancing the network:
              Trial  1: relative flow change = 0.000000
    14:15:00: Balanced after 1 trials
   
  WARNING: Negative pressures at 14:15:00 hrs.
  
    14:20:00: Balancing the network:
              Trial  1: relative flow change = 0.000000
    14:20:00: Balanced after 1 trials
   
  WARNING: Negative pressures at 14:20:00 hrs.
  
    14:25:00: Balancing the network:
              Trial  1: relative flow change = 0.000000
    14:25:00: Balanced after 1 trials
   
  WARNING: Negative pressures at 14:25:00 hrs.
  
    14:30:00: Balancing the network:
              Trial  1: relative flow change = 0.010608
              Trial  2: relative flow change = 0.000000
    14:30:00: Balanced after 2 trials
   
  WARNING: Negative pressures at 14:30:00 hrs.
  
    14:35:00: Balancing the network:
              Trial  1: relative flow change = 0.000000
    14:35:00: Balanced after 1 trials
   
  WARNING: Negative pressures at 14:35:00 hrs.
  
    14:40:00: Balancing the network:
              Trial  1: relative flow change = 0.000000
    14:40:00: Balanced after 1 trials
   
  WARNING: Negative pressures at 14:40:00 hrs.
  
    14:45:00: Balancing the network:
              Trial  1: relative flow change = 0.000000
    14:45:00: Balanced after 1 trials
   
  WARNING: Negative pressures at 14:45:00 hrs.
  