  Page 1                                    Tue Apr 29 00:04:43 2025

  ******************************************************************
  *                           E P A N E T                          *
  *                   Hydraulic and Water Quality                  *
  *                   Analysis for Pipe Networks                   *
  *                         Version 2.00.12                        *
  ******************************************************************
  
  Analysis begun Tue Apr 29 00:04:43 2025

   
  Hydraulic Status:
  -----------------------------------------------------------------------
     0:00:00: Pump P1 changed by timer control
     0:00:00: Balancing the network:
              Trial  1: relative flow change = 2.930009
              Trial  2: relative flow change = 0.000002
     0:00:00: Balanced after 2 trials
     0:00:00: Reservoir Source is closed
     0:00:00: Tank Tank1 is emptying at 4.00 m
     0:00:00: Pump P1 closed
   
     0:05:00: Balancing the network:
              Trial  1: relative flow change = 0.000000
     0:05:00: Balanced after 1 trials
   
     0:10:00: Balancing the network:
              Trial  1: relative flow change = 0.000000
     0:10:00: Balanced after 1 trials
   
     0:15:00: Balancing the network:
              Trial  1: relative flow change = 0.000000
     0:15:00: Balanced after 1 trials
   
     0:20:00: Balancing the network:
              Trial  1: relative flow change = 0.000000
     0:20:00: Balanced after 1 trials
   
     0:25:00: Balancing the network:
              Trial  1: relative flow change = 0.000000
     0:25:00: Balanced after 1 trials
   
     0:30:00: Balancing the network:
              Trial  1: relative flow change = 0.023722
              Trial  2: relative flow change = 0.000000
     0:30:00: Balanced after 2 trials
   
     0:35:00: Balancing the network:
              Trial  1: relative flow change = 0.000000
     0:35:00: Balanced after 1 trials
   
     0:40:00: Balancing the network:
              Trial  1: relative flow change = 0.000000
     0:40:00: Balanced after 1 trials
   
     0:45:00: Balancing the network:
              Trial  1: relative flow change = 0.000000
     0:45:00: Balanced after 1 trials
   
     0:50:00: Balancing the network:
              Trial  1: relative flow change = 0.000000
     0:50:00: Balanced after 1 trials
   
     0:55:00: Balancing the network:
              Trial  1: relative flow change = 0.000000
     0:55:00: Balanced after 1 trials
   
     1:00:00: Balancing the network:
              Trial  1: relative flow change = 0.035211
              Trial  2: relative flow change = 0.000000
     1:00:00: Balanced after 2 trials
   
     1:05:00: Balancing the network:
              Trial  1: relative flow change = 0.000000
     1:05:00: Balanced after 1 trials
   
     1:10:00: Balancing the network:
              Trial  1: relative flow change = 0.000000
     1:10:00: Balanced after 1 trials
   
     1:15:00: Balancing the network:
              Trial  1: relative flow change = 0.000000
     1:15:00: Balanced after 1 trials
   
     1:20:00: Balancing the network:
              Trial  1: relative flow change = 0.000000
     1:20:00: Balanced after 1 trials
   
     1:25:00: Balancing the network:
              Trial  1: relative flow change = 0.000000
     1:25:00: Balanced after 1 trials
   
     1:30:00: Balancing the network:
              Trial  1: relative flow change = 0.041630
              Trial  2: relative flow change = 0.000000
     1:30:00: Balanced after 2 trials
   
     1:35:00: Balancing the network:
              Trial  1: relative flow change = 0.000000
     1:35:00: Balanced after 1 trials
   
     1:40:00: Balancing the network:
              Trial  1: relative flow change = 0.000000
     1:40:00: Balanced after 1 trials
   
     1:45:00: Balancing the network:
              Trial  1: relative flow change = 0.000000
     1:45:00: Balanced after 1 trials
   
     1:50:00: Balancing the network:
              Trial  1: relative flow change = 0.000000
     1:50:00: Balanced after 1 trials
   
     1:55:00: Balancing the network:
              Trial  1: relative flow change = 0.000000
     1:55:00: Balanced after 1 trials
   
     2:00:00: Balancing the network:
              Trial  1: relative flow change = 0.043581
              Trial  2: relative flow change = 0.000000
     2:00:00: Balanced after 2 trials
   
     2:05:00: Balancing the network:
              Trial  1: relative flow change = 0.000000
     2:05:00: Balanced after 1 trials
   
     2:10:00: Balancing the network:
              Trial  1: relative flow change = 0.000000
     2:10:00: Balanced after 1 trials
   
     2:15:00: Balancing the network:
              Trial  1: relative flow change = 0.000000
     2:15:00: Balanced after 1 trials
   
     2:20:00: Balancing the network:
              Trial  1: relative flow change = 0.000000
     2:20:00: Balanced after 1 trials
   
     2:25:00: Balancing the network:
              Trial  1: relative flow change = 0.000000
     2:25:00: Balanced after 1 trials
   
     2:30:00: Balancing the network:
              Trial  1: relative flow change = 0.041640
              Trial  2: relative flow change = 0.000000
     2:30:00: Balanced after 2 trials
   
     2:35:00: Balancing the network:
              Trial  1: relative flow change = 0.000000
     2:35:00: Balanced after 1 trials
   
     2:40:00: Balancing the network:
              Trial  1: relative flow change = 0.000000
     2:40:00: Balanced after 1 trials
   
     2:45:00: Balancing the network:
              Trial  1: relative flow change = 0.000000
     2:45:00: Balanced after 1 trials
   
     2:50:00: Balancing the network:
              Trial  1: relative flow change = 0.000000
     2:50:00: Balanced after 1 trials
   
     2:55:00: Balancing the network:
              Trial  1: relative flow change = 0.000000
     2:55:00: Balanced after 1 trials
   
     3:00:00: Balancing the network:
              Trial  1: relative flow change = 0.036405
              Trial  2: relative flow change = 0.000000
     3:00:00: Balanced after 2 trials
   
     3:05:00: Balancing the network:
              Trial  1: relative flow change = 0.000000
     3:05:00: Balanced after 1 trials
   
     3:10:00: Balancing the network:
              Trial  1: relative flow change = 0.000000
     3:10:00: Balanced after 1 trials
   
     3:15:00: Balancing the network:
              Trial  1: relative flow change = 0.000000
     3:15:00: Balanced after 1 trials
   
     3:20:00: Balancing the network:
              Trial  1: relative flow change = 0.000000
     3:20:00: Balanced after 1 trials
   
     3:25:00: Balancing the network:
              Trial  1: relative flow change = 0.000000
     3:25:00: Balanced after 1 trials
   
     3:30:00: Balancing the network:
              Trial  1: relative flow change = 0.028671
              Trial  2: relative flow change = 0.000000
     3:30:00: Balanced after 2 trials
   
     3:35:00: Balancing the network:
              Trial  1: relative flow change = 0.000000
     3:35:00: Balanced after 1 trials
   
     3:40:00: Balancing the network:
              Trial  1: relative flow change = 0.000000
     3:40:00: Balanced after 1 trials
   
     3:45:00: Balancing the network:
              Trial  1: relative flow change = 0.000000
     3:45:00: Balanced after 1 trials
   
     3:50:00: Balancing the network:
              Trial  1: relative flow change = 0.000000
     3:50:00: Balanced after 1 trials
   
     3:55:00: Balancing the network:
              Trial  1: relative flow change = 0.000000
     3:55:00: Balanced after 1 trials
   
     4:00:00: Balancing the network:
              Trial  1: relative flow change = 0.019308
              Trial  2: relative flow change = 0.000000
     4:00:00: Balanced after 2 trials
   
     4:05:00: Balancing the network:
              Trial  1: relative flow change = 0.000000
     4:05:00: Balanced after 1 trials
   
     4:10:00: Balancing the network:
              Trial  1: relative flow change = 0.000000
     4:10:00: Balanced after 1 trials
   
     4:15:00: Balancing the network:
              Trial  1: relative flow change = 0.000000
     4:15:00: Balanced after 1 trials
   
     4:20:00: Balancing the network:
              Trial  1: relative flow change = 0.000000
     4:20:00: Balanced after 1 trials
   
     4:25:00: Balancing the network:
              Trial  1: relative flow change = 0.000000
     4:25:00: Balanced after 1 trials
   
     4:30:00: Balancing the network:
              Trial  1: relative flow change = 0.009286
              Trial  2: relative flow change = 0.000000
     4:30:00: Balanced after 2 trials
   
     4:35:00: Balancing the network:
              Trial  1: relative flow change = 0.000000
     4:35:00: Balanced after 1 trials
   
     4:40:00: Balancing the network:
              Trial  1: relative flow change = 0.000000
     4:40:00: Balanced after 1 trials
   
     4:45:00: Balancing the network:
              Trial  1: relative flow change = 0.000000
     4:45:00: Balanced after 1 trials
   
     4:50:00: Balancing the network:
              Trial  1: relative flow change = 0.000000
     4:50:00: Balanced after 1 trials
   
     4:55:00: Balancing the network:
              Trial  1: relative flow change = 0.000000
     4:55:00: Balanced after 1 trials
   
     5:00:00: Balancing the network:
              Trial  1: relative flow change = 0.010027
              Trial  2: relative flow change = 0.000000
     5:00:00: Balanced after 2 trials
   
     5:05:00: Balancing the network:
              Trial  1: relative flow change = 0.000000
     5:05:00: Balanced after 1 trials
   
     5:10:00: Balancing the network:
              Trial  1: relative flow change = 0.000000
     5:10:00: Balanced after 1 trials
   
     5:15:00: Balancing the network:
              Trial  1: relative flow change = 0.000000
     5:15:00: Balanced after 1 trials
   
     5:20:00: Balancing the network:
              Trial  1: relative flow change = 0.000000
     5:20:00: Balanced after 1 trials
   
     5:25:00: Balancing the network:
              Trial  1: relative flow change = 0.000000
     5:25:00: Balanced after 1 trials
   
     5:30:00: Balancing the network:
              Trial  1: relative flow change = 0.018995
              Trial  2: relative flow change = 0.000000
     5:30:00: Balanced after 2 trials
   
     5:35:00: Balancing the network:
              Trial  1: relative flow change = 0.000000
     5:35:00: Balanced after 1 trials
   
     5:40:00: Balancing the network:
              Trial  1: relative flow change = 0.000000
     5:40:00: Balanced after 1 trials
   
     5:45:00: Balancing the network:
              Trial  1: relative flow change = 0.000000
     5:45:00: Balanced after 1 trials
   
     5:50:00: Balancing the network:
              Trial  1: relative flow change = 0.000000
     5:50:00: Balanced after 1 trials
   
     5:55:00: Balancing the network:
              Trial  1: relative flow change = 0.000000
     5:55:00: Balanced after 1 trials
   
     6:00:00: Balancing the network:
              Trial  1: relative flow change = 0.026307
              Trial  2: relative flow change = 0.000000
     6:00:00: Balanced after 2 trials
   
     6:05:00: Balancing the network:
              Trial  1: relative flow change = 0.000000
     6:05:00: Balanced after 1 trials
   
     6:10:00: Balancing the network:
              Trial  1: relative flow change = 0.000000
     6:10:00: Balanced after 1 trials
   
     6:15:00: Balancing the network:
              Trial  1: relative flow change = 0.000000
     6:15:00: Balanced after 1 trials
   
  WARNING: Negative pressures at 6:15:00 hrs.
  
     6:20:00: Balancing the network:
              Trial  1: relative flow change = 0.000000
     6:20:00: Balanced after 1 trials
   
  WARNING: Negative pressures at 6:20:00 hrs.
  
     6:25:00: Balancing the network:
              Trial  1: relative flow change = 0.000000
     6:25:00: Balanced after 1 trials
   
  WARNING: Negative pressures at 6:25:00 hrs.
  
     6:30:00: Balancing the network:
              Trial  1: relative flow change = 0.031688
              Trial  2: relative flow change = 0.000000
     6:30:00: Balanced after 2 trials
   
  WARNING: Negative pressures at 6:30:00 hrs.
  
     6:35:00: Balancing the network:
              Trial  1: relative flow change = 0.000000
     6:35:00: Balanced after 1 trials
   
  WARNING: Negative pressures at 6:35:00 hrs.
  
     6:40:00: Balancing the network:
              Trial  1: relative flow change = 0.000000
     6:40:00: Balanced after 1 trials
   
  WARNING: Negative pressures at 6:40:00 hrs.
  
     6:45:00: Balancing the network:
              Trial  1: relative flow change = 0.000000
     6:45:00: Balanced after 1 trials
   
  WARNING: Negative pressures at 6:45:00 hrs.
  
     6:50:00: Balancing the network:
              Trial  1: relative flow change = 0.000000
     6:50:00: Balanced after 1 trials
   
  WARNING: Negative pressures at 6:50:00 hrs.
  
     6:55:00: Balancing the network:
              Trial  1: relative flow change = 0.000000
     6:55:00: Balanced after 1 trials
   
  WARNING: Negative pressures at 6:55:00 hrs.
  
     7:00:00: Balancing the network:
              Trial  1: relative flow change = 0.035153
              Trial  2: relative flow change = 0.000000
     7:00:00: Balanced after 2 trials
   
  WARNING: Negative pressures at 7:00:00 hrs.
  
     7:05:00: Balancing the network:
              Trial  1: relative flow change = 0.000000
     7:05:00: Balanced after 1 trials
   
  WARNING: Negative pressures at 7:05:00 hrs.
  
     7:10:00: Balancing the network:
              Trial  1: relative flow change = 0.000000
     7:10:00: Balanced after 1 trials
   
  WARNING: Negative pressures at 7:10:00 hrs.
  
     7:15:00: Balancing the network:
              Trial  1: relative flow change = 0.000000
     7:15:00: Balanced after 1 trials
   
  WARNING: Negative pressures at 7:15:00 hrs.
  
     7:20:00: Balancing the network:
              Trial  1: relative flow change = 0.000000
     7:20:00: Balanced after 1 trials
   
  WARNING: Negative pressures at 7:20:00 hrs.
  
     7:25:00: Balancing the network:
              Trial  1: relative flow change = 0.000000
     7:25:00: Balanced after 1 trials
   
  WARNING: Negative pressures at 7:25:00 hrs.
  
     7:30:00: Balancing the network:
              Trial  1: relative flow change = 0.036824
              Trial  2: relative flow change = 0.000000
     7:30:00: Balanced after 2 trials
   
  WARNING: Negative pressures at 7:30:00 hrs.
  
     7:35:00: Balancing the network:
              Trial  1: relative flow change = 0.000000
     7:35:00: Balanced after 1 trials
   
  WARNING: Negative pressures at 7:35:00 hrs.
  
     7:40:00: Balancing the network:
              Trial  1: relative flow change = 0.000000
     7:40:00: Balanced after 1 trials
   
  WARNING: Negative pressures at 7:40:00 hrs.
  
     7:45:00: Balancing the network:
              Trial  1: relative flow change = 0.000000
     7:45:00: Balanced after 1 trials
   
  WARNING: Negative pressures at 7:45:00 hrs.
  
     7:50:00: Balancing the network:
              Trial  1: relative flow change = 0.000000
     7:50:00: Balanced after 1 trials
   
  WARNING: Negative pressures at 7:50:00 hrs.
  
     7:55:00: Balancing the network:
              Trial  1: relative flow change = 0.000000
     7:55:00: Balanced after 1 trials
   
  WARNING: Negative pressures at 7:55:00 hrs.
  
     8:00:00: Balancing the network:
              Trial  1: relative flow change = 0.036889
              Trial  2: relative flow change = 0.000000
     8:00:00: Balanced after 2 trials
   
  WARNING: Negative pressures at 8:00:00 hrs.
  
     8:05:00: Balancing the network:
              Trial  1: relative flow change = 0.000000
     8:05:00: Balanced after 1 trials
   
  WARNING: Negative pressures at 8:05:00 hrs.
  
     8:10:00: Balancing the network:
              Trial  1: relative flow change = 0.000000
     8:10:00: Balanced after 1 trials
   
  WARNING: Negative pressures at 8:10:00 hrs.
  
     8:15:00: Balancing the network:
              Trial  1: relative flow change = 0.000000
     8