  Page 1                                    Wed May 07 23:47:56 2025

  ******************************************************************
  *                           E P A N E T                          *
  *                   Hydraulic and Water Quality                  *
  *                   Analysis for Pipe Networks                   *
  *                         Version 2.00.12                        *
  ******************************************************************
  
  Analysis begun Wed May 07 23:47:56 2025

   
  Hydraulic Status:
  -----------------------------------------------------------------------
     0:00:00: Pump P1 changed by timer control
     0:00:00: Balancing the network:
              Trial  1: relative flow change = 2.930009
              Trial  2: relative flow change = 0.000002
     0:00:00: Balanced after 2 trials
     0:00:00: Reservoir Source is closed
     0:00:00: Tank Tank1 is emptying at 4.00 m
     0:00:00: Pump P1 closed
   
     0:05:00: Balancing the network:
              Trial  1: relative flow change = 0.000000
     0:05:00: Balanced after 1 trials
   
     0:10:00: Balancing the network:
              Trial  1: relative flow change = 0.000000
     0:10:00: Balanced after 1 trials
   
     0:15:00: Balancing the network:
              Trial  1: relative flow change = 0.000000
     0:15:00: Balanced after 1 trials
   
     0:20:00: Balancing the network:
              Trial  1: relative flow change = 0.000000
     0:20:00: Balanced after 1 trials
   
     0:25:00: Balancing the network:
              Trial  1: relative flow change = 0.000000
     0:25:00: Balanced after 1 trials
   
     0:30:00: Balancing the network:
              Trial  1: relative flow change = 0.023722
              Trial  2: relative flow change = 0.000000
     0:30:00: Balanced after 2 trials
   
     0:35:00: Balancing the network:
              Trial  1: relative flow change = 0.000000
     0:35:00: Balanced after 1 trials
   
     0:40:00: Balancing the network:
              Trial  1: relative flow change = 0.000000
     0:40:00: Balanced after 1 trials
   
     0:45:00: Balancing the network:
              Trial  1: relative flow change = 0.000000
     0:45:00: Balanced after 1 trials
   
     0:50:00: Balancing the network:
              Trial  1: relative flow change = 0.000000
     0:50:00: Balanced after 1 trials
   
     0:55:00: Balancing the network:
              Trial  1: relative flow change = 0.000000
     0:55:00: Balanced after 1 trials
   
     1:00:00: Balancing the network:
              Trial  1: relative flow change = 0.035211
              Trial  2: relative flow change = 0.000000
     1:00:00: Balanced after 2 trials
   
     1:05:00: Balancing the network:
              Trial  1: relative flow change = 0.000000
     1:05:00: Balanced after 1 trials
   
     1:10:00: Balancing the network:
              Trial  1: relative flow change = 0.000000
     1:10:00: Balanced after 1 trials
   
     1:15:00: Balancing the network:
              Trial  1: relative flow change = 0.000000
     1:15:00: Balanced after 1 trials
   
     1:20:00: Balancing the network:
              Trial  1: relative flow change = 0.000000
     1:20:00: Balanced after 1 trials
   
     1:25:00: Balancing the network:
              Trial  1: relative flow change = 0.000000
     1:25:00: Balanced after 1 trials
   
     1:30:00: Balancing the network:
              Trial  1: relative flow change = 0.041630
              Trial  2: relative flow change = 0.000000
     1:30:00: Balanced after 2 trials
   
     1:35:00: Balancing the network:
              Trial  1: relative flow change = 0.000000
     1:35:00: Balanced after 1 trials
   
     1:40:00: Balancing the network:
              Trial  1: relative flow change = 0.000000
     1:40:00: Balanced after 1 trials
   
     1:45:00: Balancing the network:
              Trial  1: relative flow change = 0.000000
     1:45:00: Balanced after 1 trials
   
     1:50:00: Balancing the network:
              Trial  1: relative flow change = 0.000000
     1:50:00: Balanced after 1 trials
   
     1:55:00: Balancing the network:
              Trial  1: relative flow change = 0.000000
     1:55:00: Balanced after 1 trials
   
     2:00:00: Balancing the network:
              Trial  1: relative flow change = 0.043581
              Trial  2: relative flow change = 0.000000
     2:00:00: Balanced after 2 trials
   
     2:05:00: Balancing the network:
              Trial  1: relative flow change = 0.000000
     2:05:00: Balanced after 1 trials
   
     2:10:00: Balancing the network:
              Trial  1: relative flow change = 0.000000
     2:10:00: Balanced after 1 trials
   
     2:15:00: Balancing the network:
              Trial  1: relative flow change = 0.000000
     2:15:00: Balanced after 1 trials
   
     2:20:00: Balancing the network:
              Trial  1: relative flow change = 0.000000
     2:20:00: Balanced after 1 trials
   
     2:25:00: Balancing the network:
              Trial  1: relative flow change = 0.000000
     2:25:00: Balanced after 1 trials
   
     2:30:00: Balancing the network:
              Trial  1: relative flow change = 0.041640
              Trial  2: relative flow change = 0.000000
     2:30:00: Balanced after 2 trials
   
     2:35:00: Balancing the network:
              Trial  1: relative flow change = 0.000000
     2:35:00: Balanced after 1 trials
   
     2:40:00: Balancing the network:
              Trial  1: relative flow change = 0.000000
     2:40:00: Balanced after 1 trials
   
     2:45:00: Balancing the network:
              Trial  1: relative flow change = 0.000000
     2:45:00: Balanced after 1 trials
   
     2:50:00: Balancing the network:
              Trial  1: relative flow change = 0.000000
     2:50:00: Balanced after 1 trials
   
     2:55:00: Balancing the network:
              Trial  1: relative flow change = 0.000000
     2:55:00: Balanced after 1 trials
   
     3:00:00: Balancing the network:
              Trial  1: relative flow change = 0.036405
              Trial  2: relative flow change = 0.000000
     3:00:00: Balanced after 2 trials
   
     3:05:00: Balancing the network:
              Trial  1: relative flow change = 0.000000
     3:05:00: Balanced after 1 trials
   
     3:10:00: Balancing the network:
              Trial  1: relative flow change = 0.000000
     3:10:00: Balanced after 1 trials
   
     3:15:00: Balancing the network:
              Trial  1: relative flow change = 0.000000
     3:15:00: Balanced after 1 trials
   
     3:20:00: Balancing the network:
              Trial  1: relative flow change = 0.000000
     3:20:00: Balanced after 1 trials
   
     3:25:00: Balancing the network:
              Trial  1: relative flow change = 0.000000
     3:25:00: Balanced after 1 trials
   
     3:30:00: Balancing the network:
              Trial  1: relative flow change = 0.028671
              Trial  2: relative flow change = 0.000000
     3:30:00: Balanced after 2 trials
   
     3:35:00: Balancing the network:
              Trial  1: relative flow change = 0.000000
     3:35:00: Balanced after 1 trials
   
     3:40:00: Balancing the network:
              Trial  1: relative flow change = 0.000000
     3:40:00: Balanced after 1 trials
   
     3:45:00: Balancing the network:
              Trial  1: relative flow change = 0.000000
     3:45:00: Balanced after 1 trials
   
     3:50:00: Balancing the network:
              Trial  1: relative flow change = 0.000000
     3:50:00: Balanced after 1 trials
   
     3:55:00: Balancing the network:
              Trial  1: relative flow change = 0.000000
     3:55:00: Balanced after 1 trials
   
     4:00:00: Balancing the network:
              Trial  1: relative flow change = 0.019308
              Trial  2: relative flow change = 0.000000
     4:00:00: Balanced after 2 trials
   
     4:01:12: Pump P1 changed by timer control
     4:01:12: Balancing the network:
              Trial  1: relative flow change = 0.996717
              Trial  2: relative flow change = 0.982869
              Trial  3: relative flow change = 0.952753
              Trial  4: relative flow change = 0.861940
              Trial  5: relative flow change = 0.627419
              Trial  6: relative flow change = 0.264713
              Trial  7: relative flow change = 0.039463
              Trial  8: relative flow change = 0.000864
     4:01:12: Balanced after 8 trials
     4:01:12: Reservoir Source is emptying
     4:01:12: Tank Tank1 is filling at 1.77 m
     4:01:12: Pump P1 changed from closed to open
   
     4:05:00: Balancing the network:
              Trial  1: relative flow change = 0.000135
     4:05:00: Balanced after 1 trials
   
     4:10:00: Balancing the network:
              Trial  1: relative flow change = 0.000176
     4:10:00: Balanced after 1 trials
   
     4:15:00: Balancing the network:
              Trial  1: relative flow change = 0.000176
     4:15:00: Balanced after 1 trials
   
     4:20:00: Balancing the network:
              Trial  1: relative flow change = 0.000176
     4:20:00: Balanced after 1 trials
   
     4:25:00: Balancing the network:
              Trial  1: relative flow change = 0.000176
     4:25:00: Balanced after 1 trials
   
     4:30:00: Balancing the network:
              Trial  1: relative flow change = 0.001187
              Trial  2: relative flow change = 0.000001
     4:30:00: Balanced after 2 trials
   
     4:35:00: Balancing the network:
              Trial  1: relative flow change = 0.000176
     4:35:00: Balanced after 1 trials
   
     4:40:00: Balancing the network:
              Trial  1: relative flow change = 0.000176
     4:40:00: Balanced after 1 trials
   
     4:45:00: Balancing the network:
              Trial  1: relative flow change = 0.000176
     4:45:00: Balanced after 1 trials
   
     4:50:00: Balancing the network:
              Trial  1: relative flow change = 0.000176
     4:50:00: Balanced after 1 trials
   
     4:55:00: Balancing the network:
              Trial  1: relative flow change = 0.000176
     4:55:00: Balanced after 1 trials
   
     5:00:00: Balancing the network:
              Trial  1: relative flow change = 0.001294
              Trial  2: relative flow change = 0.000001
     5:00:00: Balanced after 2 trials
   
     5:05:00: Balancing the network:
              Trial  1: relative flow change = 0.000175
     5:05:00: Balanced after 1 trials
   
     5:10:00: Balancing the network:
              Trial  1: relative flow change = 0.000175
     5:10:00: Balanced after 1 trials
   
     5:15:00: Balancing the network:
              Trial  1: relative flow change = 0.000175
     5:15:00: Balanced after 1 trials
   
     5:20:00: Balancing the network:
              Trial  1: relative flow change = 0.000175
     5:20:00: Balanced after 1 trials
   
     5:25:00: Balancing the network:
              Trial  1: relative flow change = 0.000175
     5:25:00: Balanced after 1 trials
   
     5:30:00: Balancing the network:
              Trial  1: relative flow change = 0.002428
              Trial  2: relative flow change = 0.000001
     5:30:00: Balanced after 2 trials
   
     5:35:00: Balancing the network:
              Trial  1: relative flow change = 0.000173
     5:35:00: Balanced after 1 trials
   
     5:40:00: Balancing the network:
              Trial  1: relative flow change = 0.000173
     5:40:00: Balanced after 1 trials
   
     5:45:00: Balancing the network:
              Trial  1: relative flow change = 0.000173
     5:45:00: Balanced after 1 trials
   
     5:50:00: Balancing the network:
              Trial  1: relative flow change = 0.000173
     5:50:00: Balanced after 1 trials
   
     5:55:00: Balancing the network:
              Trial  1: relative flow change = 0.000173
     5:55:00: Balanced after 1 trials
   
     6:00:00: Balancing the network:
              Trial  1: relative flow change = 0.003416
              Trial  2: relative flow change = 0.000001
     6:00:00: Balanced after 2 trials
   
     6:05:00: Balancing the network:
              Trial  1: relative flow change = 0.000170
     6:05:00: Balanced after 1 trials
   
     6:10:00: Balancing the network:
              Trial  1: relative flow change = 0.000170
     6:10:00: Balanced after 1 trials
   
     6:15:00: Balancing the network:
              Trial  1: relative flow change = 0.000170
     6:15:00: Balanced after 1 trials
   
     6:20:00: Balancing the network:
              Trial  1: relative flow change = 0.000170
     6:20:00: Balanced after 1 trials
   
     6:25:00: Balancing the network:
              Trial  1: relative flow change = 0.000170
     6:25:00: Balanced after 1 trials
   
     6:30:00: Balancing the network:
              Trial  1: relative flow change = 0.004220
              Trial  2: relative flow change = 0.000001
     6:30:00: Balanced after 2 trials
   
     6:35:00: Balancing the network:
              Trial  1: relative flow change = 0.000166
     6:35:00: Balanced after 1 trials
   
     6:40:00: Balancing the network:
              Trial  1: relative flow change = 0.000166
     6:40:00: Balanced after 1 trials
   
     6:45:00: Balancing the network:
              Trial  1: relative flow change = 0.000166
     6:45:00: Balanced after 1 trials
   
     6:50:00: Balancing the network:
              Trial  1: relative flow change = 0.000166
     6:50:00: Balanced after 1 trials
   
     6:53:00: Pump P1 changed by timer control
     6:53:00: Balancing the network:
              Trial  1: relative flow change = 7.247261
              Trial  2: relative flow change = 0.000009
     6:53:00: Balanced after 2 trials
     6:53:00: Reservoir Source is closed
     6:53:00: Tank Tank1 is emptying at 4.05 m
     6:53:00: Pump P1 changed from open to closed
   
     6:55:00: Balancing the network:
              Trial  1: relative flow change = 0.000000
     6:55:00: Balanced after 1 trials
   
     7:00:00: Balancing the network:
              Trial  1: relative flow change = 0.035153
              Trial  2: relative flow change = 0.000000
     7:00:00: Balanced after 2 trials
   
     7:05:00: Balancing the network:
              Trial  1: relative flow change = 0.000000
     7:05:00: Balanced after 1 trials
   
     7:10:00: Balancing the network:
              Trial  1: relative flow change = 0.000000
     7:10:00: Balanced after 1 trials
   
     7:15:00: Balancing the network:
              Trial  1: relative flow change = 0.000000
     7:15:00: Balanced after 1 trials
   
     7:20:00: Balancing the network:
              Trial  1: relative flow change = 0.000000
     7:20:00: Balanced after 1 trials
   
     7:25:00: Balancing the network:
              Trial  1: relative flow change = 0.000000
     7:25:00: Balanced after 1 trials
   
     7:30:00: Balancing the network:
              Trial  1: relative flow change = 0.036824
              Trial  2: relative flow change = 0.000000
     7:30:00: Balanced after 2 trials
   
     7:35:00: Balancing the network:
              Trial  1: relative flow change = 0.000000
     7:35:00: Balanced after 1 trials
   
     7:40:00: Balancing the network:
              Trial  1: relative flow change = 0.000000
     7:40:00: Balanced after 1 trials
   
     7:45:00: Balancing the network:
              Trial  1: relative flow change = 0.000000
     7:45:00: Balanced after 1 trials
   
     7:50:00: Balancing the network:
              Trial  1: relative flow change = 0.000000
     7:50:00: Balanced after 1 trials
   
     7:55:00: Balancing the network:
              Trial  1: relative flow change = 0.000000
     7:55:00: Balanced after 1 trials
   
     8:00:00: Balancing the network:
              Trial  1: relative flow change = 0.036889
              Trial  2: relative flow change = 0.000000
     8:00:00: Balanced after 2 trials
   
     8:05:00: Balancing the network:
              Trial  1: relative flow change = 0.000000
     8:05:00: Balanced after 1 trials
   
     8:10:00: Balancing the network:
              Trial  1: relative flow change = 0.000000
     8:10:00: Balanced after 1 trials
   
     8:15:00: Balancing the network:
              Trial  1: relative flow change = 0.000000
     8:15:00: Balanced after 1 trials
   
     8:15:54: Pump P1 changed by timer control
     8:15:54: Balancing the network:
              Trial  1: relative flow change = 0.995010
              Trial  2: relative flow change = 0.976331
              Trial  3: relative flow change = 0.936444
              Trial  4: relative flow change = 0.821730
              Trial  5: relative flow change = 0.552207
              Trial  6: relative flow change = 0.198518
              Trial  7: relative flow change = 0.022328
              Trial  8: relative flow change = 0.000287
     8:15:54: Balanced after 8 trials
     8:15:54: Reservoir Source is emptying
     8:15:54: Tank Tank1 is filling at 3.26 m
     8:15:54: Pump P1 changed from closed to open
   
     8:20:00: Balancing the network:
              Trial  1: relative flow change = 0.000124
     8:20:00: Balanced after 1 trials
   
     8:25:00: Balancing the network:
              Trial  1: relative flow change = 0.000151
     8:25:00: Balanced after 1 trials
   
     8:30:00: Balancing the network:
              Trial  1: relative flow change = 0.005377
              Trial  2: relative flow change = 0.000001
     8:30:00: Balanced after 2 trials
   
     8:35:00: Balancing the network:
              Trial  1: relative flow change = 0.000145
     8:35:00: Balanced after 1 trials
   
     8:40:00: Balancing the network:
              Trial  1: relative flow change = 0.000145
     8:40:00: Balanced after 1 trials
   
     8:45:00: Balancing the network:
              Trial  1: relative flow change = 0.000145
     8:45:00: Balanced after 1 trials
   
     8:50:00: Balancing the network:
              Trial  1: relative flow change = 0.000145
     8:50:00: Balanced after 1 trials
   
     8:55:00: Balancing the network:
              Trial  1: relative flow change = 0.000145
     8:55:00: Balanced after 1 trials
   
     9:00:00: Balancing the network:
              Trial  1: relative flow change = 0.005178
              Trial  2: relative flow change = 0.000001
     9:00:00: Balanced after 2 trials
   
     9:05:00: Balancing the network:
              Trial  1: relative flow change = 0.000140
     9:05:00: Balanced after 1 trials
   
     9:10:00: Balancing the network:
              Trial  1: relative flow change = 0.000140
     9:10:00: Balanced after 1 trials
   
     9:15:00: Balancing the network:
              Trial  1: relative flow change = 0.000140
     9:15:00: Balanced after 1 trials
   
     9:20:00: Balancing the network:
              Trial  1: relative flow change = 0.000140
     9:20:00: Balanced after 1 trials
   
     9:25:00: Balancing the network:
              Trial  1: relative flow change = 0.000140
     9:25:00: Balanced after 1 trials
   
     9:30:00: Balancing the network:
              Trial  1: relative flow change = 0.004822
              Trial  2: relative flow change = 0.000001
     9:30:00: Balanced after 2 trials
   
     9:35:00: Balancing the network:
              Trial  1: relative flow change = 0.000136
     9:35:00: Balanced after 1 trials
   
     9:35:48: Pump P1 changed by timer control
     9:35:48: Balancing the network:
              Trial  1: relative flow change = 5.879442
              Trial  2: relative flow change = 0.000008
     9:35:48: Balanced after 2 trials
     9:35:48: Reservoir Source is closed
     9:35:48: Tank Tank1 is emptying at 4.16 m
     9:35:48: Pump P1 changed from open to closed
   
     9:40:00: Balancing the network:
              Trial  1: relative flow change = 0.000000
     9:40:00: Balanced after 1 trials
   
     9:45:00: Balancing the network:
              Trial  1: relative flow change = 0.000000
     9:45:00: Balanced after 1 trials
   
     9:50:00: Balancing the network:
              Trial  1: relative flow change = 0.000000
     9:50:00: Balanced after 1 trials
   
     9:55:00: Balancing the network:
              Trial  1: relative flow change = 0.000000
     9:55:00: Balanced after 1 trials
   
    10:00:00: Balancing the network:
              Trial  1: relative flow change = 0.026354
              Trial  2: relative flow change = 0.000000
    10:00:00: Balanced after 2 trials
   
    10:05:00: Balancing the network:
              Trial  1: relative flow change = 0.000000
    10:05:00: Balanced after 1 trials
   
    10:10:00: Balancing the network:
              Trial  1: relative flow change = 0.000000
    10:10:00: Balanced after 1 trials
   
    10:15:00: Balancing the network:
              Trial  1: relative flow change = 0.000000
    10:15:00: Balanced after 1 trials
   
    10:20:00: Balancing the network:
              Trial  1: relative flow change = 0.000000
    10:20:00: Balanced after 1 trials
   
    10:25:00: Balancing the network:
              Trial  1: relative flow change = 0.000000
    10:25:00: Balanced after 1 trials
   
    10:30:00: Balancing the network:
              Trial  1: relative flow change = 0.022160
              Trial  2: relative flow change = 0.000000
    10:30:00: Balanced after 2 trials
   
    10:35:00: Balancing the network:
              Trial  1: relative flow change = 0.000000
    10:35:00: Balanced after 1 trials
   
    10:40:00: Balancing the network:
              Trial  1: relative flow change = 0.000000
    10:40:00: Balanced after 1 trials
   
    10:45:00: Balancing the network:
              Trial  1: relative flow change = 0.000000
    10:45:00: Balanced after 1 trials
   
    10:50:00: Balancing the network:
              Trial  1: relative flow change = 0.000000
    10:50:00: Balanced after 1 trials
   
    10:55:00: Balancing the network:
              Trial  1: relative flow change = 0.000000
    10:55:00: Balanced after 1 trials
   
    11:00:00: Balancing the network:
              Trial  1: relative flow change = 0.017720
              Trial  2: relative flow change = 0.000000
    11:00:00: Balanced after 2 trials
   
    11:05:00: Balancing the network:
              Trial  1: relative flow change = 0.000000
    11:05:00: Balanced after 1 trials
   
    11:10:00: Balancing the network:
              Trial  1: relative flow change = 0.000000
    11:10:00: Balanced after 1 trials
   
    11:15:00: Balancing the network:
              Trial  1: relative flow change = 0.000000
    11:15:00: Balanced after 1 trials
   
    11:20:00: Balancing the network:
              Trial  1: relative flow change = 0.000000
    11:20:00: Balanced after 1 trials
   
    11:25:00: Balancing the network:
              Trial  1: relative flow change = 0.000000
    11:25:00: Balanced after 1 trials
   
    11:30:00: Balancing the network:
              Trial  1: relative flow change = 0.013196
              Trial  2: relative flow change = 0.000000
    11:30:00: Balanced after 2 trials
   
    11:35:00: Balancing the network:
              Trial  1: relative flow change = 0.000000
    11:35:00: Balanced after 1 trials
   
    11:40:00: Balancing the network:
              Trial  1: relative flow change = 0.000000
    11:40:00: Balanced after 1 trials
   
    11:45:00: Balancing the network:
              Trial  1: relative flow change = 0.000000
    11:45:00: Balanced after 1 trials
   
    11:50:00: Balancing the network:
              Trial  1: relative flow change = 0.000000
    11:50:00: Balanced after 1 trials
   
    11:55:00: Balancing the network:
              Trial  1: relative flow change = 0.000000
    11:55:00: Balanced after 1 trials
   
    12:00:00: Balancing the network:
              Trial  1: relative flow change = 0.008712
              Trial  2: relative flow change = 0.000000
    12:00:00: Balanced after 2 trials
   
    12:05:00: Balancing the network:
              Trial  1: relative flow change = 0.000000
    12:05:00: Balanced after 1 trials
   
    12:10:00: Balancing the network:
              Trial  1: relative flow change = 0.000000
    12:10:00: Balanced after 1 trials
   
    12:15:00: Balancing the network:
              Trial  1: relative flow change = 0.000000
    12:15:00: Balanced after 1 trials
   
    12:20:00: Balancing the network:
              Trial  1: relative flow change = 0.000000
    12:20:00: Balanced after 1 trials
   
    12:25:00: Balancing the network:
              Trial  1: relative flow change = 0.000000
    12:25:00: Balanced after 1 trials
   
    12:30:00: Balancing the network:
              Trial  1: relative flow change = 0.004394
              Trial  2: relative flow change = 0.000000
    12:30:00: Balanced after 2 trials
   
    12:35:00: Balancing the network:
              Trial  1: relative flow change = 0.000000
    12:35:00: Balanced after 1 trials
   
    12:40:00: Balancing the network:
              Trial  1: relative flow change = 0.000000
    12:40:00: Balanced after 1 trials
   
    12:45:00: Balancing the network:
              Trial  1: relative flow change = 0.000000
    12:45:00: Balanced after 1 trials
   
    12:50:00: Balancing the network:
              Trial  1: relative flow change = 0.000000
    12:50:00: Balanced after 1 trials
   
    12:55:00: Balancing the network:
              Trial  1: relative flow change = 0.000000
    12:55:00: Balanced after 1 trials
   
    13:00:00: Balancing the network:
              Trial  1: relative flow change = 0.003567
              Trial  2: relative flow change = 0.000000
    13:00:00: Balanced after 2 trials
   
    13:05:00: Balancing the network:
              Trial  1: relative flow change = 0.000000
    13:05:00: Balanced after 1 trials
   
    13:10:00: Balancing the network:
              Trial  1: relative flow change = 0.000000
    13:10:00: Balanced after 1 trials
   
    13:15:00: Balancing the network:
              Trial  1: relative flow change = 0.000000
    13:15:00: Balanced after 1 trials
   
    13:20:00: Balancing the network:
              Trial  1: relative flow change = 0.000000
    13:20:00: Balanced after 1 trials
   
    13:25:00: Balancing the network:
              Trial  1: relative flow change = 0.000000
    13:25:00: Balanced after 1 trials
   
    13:30:00: Balancing the network:
              Trial  1: relative flow change = 0.006561
              Trial  2: relative flow change = 0.000000
    13:30:00: Balanced after 2 trials
   
    13:35:00: Balancing the network:
              Trial  1: relative flow change = 0.000000
    13:35:00: Balanced after 1 trials
   
    13:40:00: Balancing the network:
              Trial  1: relative flow change = 0.000000
    13:40:00: Balanced after 1 trials
   
    13:43:17: Pump P1 changed by timer control
    13:43:17: Balancing the network:
              Trial  1: relative flow change = 0.992764
              Trial  2: relative flow change = 0.968260
              Trial  3: relative flow change = 0.917002
              Trial  4: relative flow change = 0.776998
              Trial  5: relative flow change = 0.479336
              Trial  6: relative flow change = 0.146637
              Trial  7: relative flow change = 0.012370
              Trial  8: relative flow change = 0.000093
    13:43:17: Balanced after 8 trials
    13:43:17: Reservoir Source is emptying
    13:43:17: Tank Tank1 is filling at 1.22 m
    13:43:17: Pump P1 changed from closed to open
   
    13:45:00: Balancing the network:
              Trial  1: relative flow change = 0.000042
    13:45:00: Balanced after 1 trials
   
    13:50:00: Balancing the network:
              Trial  1: relative flow change = 0.000122
    13:50:00: Balanced after 1 trials
   
    13:55:00: Balancing the network:
              Trial  1: relative flow change = 0.000122
    13:55:00: Balanced after 1 trials
   
    13:57:57: Pump P1 changed by timer control
    13:57:57: Balancing the network:
              Trial  1: relative flow change = 5.426259
              Trial  2: relative flow change = 0.000007
    13:57:57: Balanced after 2 trials
    13:57:57: Reservoir Source is closed
    13:57:57: Tank Tank1 is emptying at 1.37 m
    13:57:57: Pump P1 changed from open to closed
   
    14:00:00: Balancing the network:
              Trial  1: relative flow change = 0.008949
              Trial  2: relative flow change = 0.000000
    14:00:00: Balanced after 2 trials
   
    14:05:00: Balancing the network:
              Trial  1: relative flow change = 0.000000
    14:05:00: Balanced after 1 trials
   
    14:10:00: Balancing the network:
              Trial  1: relative flow change = 0.000000
    14:10:00: Balanced after 1 trials
   
    14:15:00: Balancing the network:
              Trial  1: relative flow change = 0.000000
    14:15:00: Balanced after 1 trials
   
    14:20:00: Balancing the network:
              Trial  1: relative flow change = 0.000000
    14:20:00: Balanced after 1 trials
   
    14:25:00: Balancing the network:
              Trial  1: relative flow change = 0.000000
    14:25:00: Balanced after 1 trials
   
    14:30:00: Balancing the network:
              Trial  1: relative flow change = 0.010608
              Trial  2: relative flow change = 0.000000
    14:30:00: Balanced after 2 trials
   
  WARNING: Negative pressures at 14:30:00 hrs.
  
    14:35:00: Balancing the network:
              Trial  1: relative flow change = 0.000000
    14:35:00: Balanced after 1 trials
   
  WARNING: Negative pressures at 14:35:00 hrs.
  
    14:40:00: Balancing the network:
              Trial  1: relative flow change = 0.000000
    14:40:00: Balanced after 1 trials
   
  WARNING: Negative pressures at 14:40:00 hrs.
  
    14:45:00: Balancing the network:
              Trial  1: relative flow change = 0.000000
    14:45:00: Balanced after 1 trials
   
  WARNING: Negative pressures at 14:45:00 hrs.
  
    14:50:00: Balancing the network:
              Trial  1: relative flow change = 0.000000
    14:50:00: Balanced after 1 trials
   
  WARNING: Negative pressures at 14:50:00 hrs.
  
    14:55:00: Balancing the network:
              Trial  1: relative flow change = 0.000000
    14:55:00: Balanced after 1 trials
   
  WARNING: Negative pressures at 14:55:00 hrs.
  
    15:00:00: Balancing the network:
              Trial  1: relative flow change = 0.011419
              Trial  2: relative flow change = 0.000000
    15:00:00: Balanced after 2 trials
   
  WARNING: Negative pressures at 15:00:00 hrs.
  
    15:05:00: Balancing the network:
              Trial  1: relative flow change = 0.000000
    15:05:00: Balanced after 1 trials
   
  WARNING: Negative pressures at 15:05:00 hrs.
  
    15:10:00: Balancing the network:
              Trial  1: relative flow change = 0.000000
    15:10:00: Balanced after 1 trials
   
  WARNING: Negative pressures at 15:10:00 hrs.
  
    15:15:00: Balancing the network:
              Trial  1: relative flow change = 0.000000
    15:15:00: Balanced after 1 trials
   
  WARNING: Negative pressures at 15:15:00 hrs.
  
    15:20:00: Balancing the network:
              Trial  1: relative flow change = 0.000000
    15:20:00: Balanced after 1 trials
   
  WARNING: Negative pressures at 15:20:00 hrs.
  
    15:25:00: Balancing the network:
              Trial  1: relative flow change = 0.000000
    15:25:00: Balanced after 1 trials
   
  WARNING: Negative pressures at 15:25:00 hrs.
  
    15:30:00: Balancing the network:
              Trial  1: relative flow change = 0.011285
              Trial  2: relative flow change = 0.000000
    15:30:00: Balanced after 2 trials
   
  WARNING: Negative pressures at 15:30:00 hrs.
  
    15:35:00: Balancing the network:
              Trial  1: relative flow change = 0.000000
    15:35:00: Balanced after 1 trials
   
  WARNING: Negative pressures at 15:35:00 hrs.
  
    15:40:00: Balancing the network:
              Trial  1: relative flow change = 0.000000
    15:40:00: Balanced after 1 trials
   
  WARNING: Negative pressures at 15:40:00 hrs.
  
    15:45:00: Balancing the network:
              Trial  1: relative flow change = 0.000000
    15:45:00: Balanced after 1 trials
   
  WARNING: Negative pressures at 15:45:00 hrs.
  
    15:50:00: Balancing the network:
              Trial  1: relative flow change = 0.000000
    15:50:00: Balanced after 1 trials
   
  WARNING: Negative pressures at 15:50:00 hrs.
  
    15:55:00: Balancing the network:
              Trial  1: relative flow change = 0.000000
    15:55:00: Balanced after 1 trials
   
  WARNING: Negative pressures at 15:55:00 hrs.
  
    16:00:00: Balancing the network:
              Trial  1: relative flow change = 0.010669
              Trial  2: relative flow change = 0.000000
    16:00:00: Balanced after 2 trials
   
  WARNING: Negative pressures at 16:00:00 hrs.
  
    16:05:00: Balancing the network:
              Trial  1: relative flow change = 0.000000
    16:05:00: Balanced after 1 trials
   
  WARNING: Negative pressures at 16:05:00 hrs.
  
    16:10:00: Balancing the network:
              Trial  1: relative flow change = 0.000000
    16:10:00: Balanced after 1 trials
   
  WARNING: Negative pressures at 16:10:00 hrs.
  
    16:15:00: Balancing the network:
              Trial  1: relative flow change = 0.000000
    16:15:00: Balanced after 1 trials
   
  WARNING: Negative pressures at 16:15:00 hrs.
  
    16:20:00: Balancing the network:
              Trial  1: relative flow change = 0.000000
    16:20:00: Balanced after 1 trials
   
  WARNING: Negative pressures at 16:20:00 hrs.
  
    16:25:00: Balancing the network:
              Trial  1: relative flow change = 0.000000
    16:25:00: Balanced after 1 trials
   
  WARNING: Negative pressures at 16:25:00 hrs.
  
    16:30:00: Balancing the network:
              Trial  1: relative flow change = 0.009461
              Trial  2: relative flow change = 0.000000
    16:30:00: Balanced after 2 trials
   
  WARNING: Negative pressures at 16:30:00 hrs.
  
    16:35:00: Balancing the network:
              Trial  1: relative flow change = 0.000000
    16:35:00: Balanced after 1 trials
   
  WARNING: Negative pressures at 16:35:00 hrs.
  
    16:40:00: Balancing the network:
              Trial  1: relative flow change = 0.000000
    16:40:00: Balanced after 1 trials
   
  WARNING: Negative pressures at 16:40:00 hrs.
  
    16:45:00: Balancing the network:
              Trial  1: relative flow change = 0.000000
    16:45:00: Balanced after 1 trials
   
  WARNING: Negative pressures at 16:45:00 hrs.
  
    16:50:00: Balancing the network:
              Trial  1: relative flow change = 0.000000
    16:50:00: Balanced after 1 trials
   
  WARNING: Negative pressures at 16:50:00 hrs.
  
    16:55:00: Balancing the network:
              Trial  1: relative flow change = 0.000000
    16:55:00: Balanced after 1 trials
   
  WARNING: Negative pressures at 16:55:00 hrs.
  
    17:00:00: Balancing the network:
              Trial  1: relative flow change = 0.007340
              Trial  2: relative flow change = 0.000000
    17:00:00: Balanced after 2 trials
   
  WARNING: Negative pressures at 17:00:00 hrs.
  
    17:05:00: Balancing the network:
              Trial  1: relative flow change = 0.000000
    17:05:00: Balanced after 1 trials
   
  WARNING: Negative pressures at 17:05:00 hrs.
  
    17:10:00: Balancing the network:
              Trial  1: relative flow change = 0.000000
    17:10:00: Balanced after 1 trials
   
  WARNING: Negative pressures at 17:10:00 hrs.
  
    17:15:00: Balancing the network:
              Trial  1: relative flow change = 0.000000
    17:15:00: Balanced after 1 trials
   
  WARNING: Negative pressures at 17:15:00 hrs.
  
    17:20:00: Balancing the network:
              Trial  1: relative flow change = 0.000000
    17:20:00: Balanced after 1 trials
   
  WARNING: Negative pressures at 17:20:00 hrs.
  
    17:25:00: Balancing the network:
              Trial  1: relative flow change = 0.000000
    17:25:00: Balanced after 1 trials
   
  WARNING: Negative pressures at 17:25:00 hrs.
  
    17:30:00: Balancing the network:
              Trial  1: relative flow change = 0.004420
              Trial  2: relative flow change = 0.000000
    17:30:00: Balanced after 2 trials
   
  WARNING: Negative pressures at 17:30:00 hrs.
  
    17:35:00: Balancing the network:
              Trial  1: relative flow change = 0.000000
    17:35:00: Balanced after 1 trials
   
  WARNING: Negative pressures at 17:35:00 hrs.
  
    17:40:00: Balancing the network:
              Trial  1: relative flow change = 0.000000
    17:40:00: Balanced after 1 trials
   
  WARNING: Negative pressures at 17:40:00 hrs.
  
    17:45:00: Balancing the network:
              Trial  1: relative flow change = 0.000000
    17:45:00: Balanced after 1 trials
   
  WARNING: Negative pressures at 17:45:00 hrs.
  
    17:50:00: Balancing the network:
              Trial  1: relative flow change = 0.000000
    17:50:00: Balanced after 1 trials
   
  WARNING: Negative pressures at 17:50:00 hrs.
  
    17:55:00: Balancing the network:
              Trial  1: relative flow change = 0.000000
    17:55:00: Balanced after 1 trials
   
  WARNING: Negative pressures at 17:55:00 hrs.
  
    18:00:00: Balancing the network:
              Trial  1: relative flow change = 0.003966
              Trial  2: relative flow change = 0.000000
    18:00:00: Balanced after 2 trials
   
  WARNING: Negative pressures at 18:00:00 hrs.
  
    18:05:00: Balancing the network:
              Trial  1: relative flow change = 0.000000
    18:05:00: Balanced after 1 trials
   
  WARNING: Negative pressures at 18:05:00 hrs.
  
    18:10:00: Balancing the network:
              Trial  1: relative flow change = 0.000000
    18:10:00: Balanced after 1 trials
   
  WARNING: Negative pressures at 18:10:00 hrs.
  
    18:15:00: Balancing the network:
              Trial  1: relative flow change = 0.000000
    18:15:00: Balanced after 1 trials
   
  WARNING: Negative pressures at 18:15:00 hrs.
  
    18:20:00: Balancing the network:
              Trial  1: relative flow change = 0.000000
    18:20:00: Balanced after 1 trials
   
  WARNING: Negative pressures at 18:20:00 hrs.
  
    18:25:00: Balancing the network:
              Trial  1: relative flow change = 0.000000
    18:25:00: Balanced after 1 trials
   
  WARNING: Negative pressures at 18:25:00 hrs.
  
    18:30:00: Balancing the network:
              Trial  1: relative flow change = 0.008918
              Trial  2: relative flow change = 0.000000
    18:30:00: Balanced after 2 trials
   
  WARNING: Negative pressures at 18:30:00 hrs.
  
    18:35:00: Balancing the network:
              Trial  1: relative flow change = 0.000000
    18:35:00: Balanced after 1 trials
   
  WARNING: Negative pressures at 18:35:00 hrs.
  
    18:37:02: Pump P1 changed by timer control
    18:37:02: Balancing the network:
              Trial  1: relative flow change = 0.993772
              Trial  2: relative flow change = 0.971272
              Trial  3: relative flow change = 0.923811
              Trial  4: relative flow change = 0.791430
              Trial  5: relative flow change = 0.500590
              Trial  6: relative flow change = 0.160142
              Trial  7: relative flow change = 0.014623
              Trial  8: relative flow change = 0.000127
    18:37:02: Balanced after 8 trials
    18:37:02: Reservoir Source is emptying
    18:37:02: Tank Tank1 is filling at -1.89 m
    18:37:02: Pump P1 changed from closed to open
   
  WARNING: Negative pressures at 18:37:02 hrs.
  
    18:40:00: Balancing the network:
              Trial  1: relative flow change = 0.000079
    18:40:00: Balanced after 1 trials
   
  WARNING: Negative pressures at 18:40:00 hrs.
  
    18:45:00: Balancing the network:
              Trial  1: relative flow change = 0.000133
    18:45:00: Balanced after 1 trials
   
  WARNING: Negative pressures at 18:45:00 hrs.
  
    18:50:00: Balancing the network:
              Trial  1: relative flow change = 0.000133
    18:50:00: Balanced after 1 trials
   
  WARNING: Negative pressures at 18:50:00 hrs.
  
    18:55:00: Balancing the network:
              Trial  1: relative flow change = 0.000133
    18:55:00: Balanced after 1 trials
   
  WARNING: Negative pressures at 18:55:00 hrs.
  
    19:00:00: Balancing the network:
              Trial  1: relative flow change = 0.002372
              Trial  2: relative flow change = 0.000000
    19:00:00: Balanced after 2 trials
   
  WARNING: Negative pressures at 19:00:00 hrs.
  
    19:05:00: Balancing the network:
              Trial  1: relative flow change = 0.000131
    19:05:00: Balanced after 1 trials
   
  WARNING: Negative pressures at 19:05:00 hrs.
  
    19:10:00: Balancing the network:
              Trial  1: relative flow change = 0.000132
    19:10:00: Balanced after 1 trials
   
  WARNING: Negative pressures at 19:10:00 hrs.
  
    19:15:00: Balancing the network:
              Trial  1: relative flow change = 0.000132
    19:15:00: Balanced after 1 trials
   
  WARNING: Negative pressures at 19:15:00 hrs.
  
    19:20:00: Balancing the network:
              Trial  1: relative flow change = 0.000132
    19:20:00: Balanced after 1 trials
   
  WARNING: Negative pressures at 19:20:00 hrs.
  
    19:25:00: Balancing the network:
              Trial  1: relative flow change = 0.000132
    19:25:00: Balanced after 1 trials
   
  WARNING: Negative pressures at 19:25:00 hrs.
  
    19:30:00: Balancing the network:
              Trial  1: relative flow change = 0.003087
              Trial  2: relative flow change = 0.000000
    19:30:00: Balanced after 2 trials
   
  WARNING: Negative pressures at 19:30:00 hrs.
  
    19:35:00: Balancing the network:
              Trial  1: relative flow change = 0.000130
    19:35:00: Balanced after 1 trials
   
  WARNING: Negative pressures at 19:35:00 hrs.
  
    19:40:00: Balancing the network:
              Trial  1: relative flow change = 0.000130
    19:40:00: Balanced after 1 trials
   
  WARNING: Negative pressures at 19:40:00 hrs.
  
    19:45:00: Balancing the network:
              Trial  1: relative flow change = 0.000130
    19:45:00: Balanced after 1 trials
   
  WARNING: Negative pressures at 19:45:00 hrs.
  
    19:50:00: Balancing the network:
              Trial  1: relative flow change = 0.000130
    19:50:00: Balanced after 1 trials
   
  WARNING: Negative pressures at 19:50:00 hrs.
  
    19:55:00: Balancing the network:
              Trial  1: relative flow change = 0.000130
    19:55:00: Balanced after 1 trials
   
  WARNING: Negative pressures at 19:55:00 hrs.
  
    20:00:00: Balancing the network:
              Trial  1: relative flow change = 0.003639
              Trial  2: relative flow change = 0.000000
    20:00:00: Balanced after 2 trials
   
  WARNING: Negative pressures at 20:00:00 hrs.
  
    20:05:00: Balancing the network:
              Trial  1: relative flow change = 0.000127
    20:05:00: Balanced after 1 trials
   
  WARNING: Negative pressures at 20:05:00 hrs.
  
    20:10:00: Balancing the network:
              Trial  1: relative flow change = 0.000128
    20:10:00: Balanced after 1 trials
   
  WARNING: Negative pressures at 20:10:00 hrs.
  
    20:15:00: Balancing the network:
              Trial  1: relative flow change = 0.000128
    20:15:00: Balanced after 1 trials
   
  WARNING: Negative pressures at 20:15:00 hrs.
  
    20:20:00: Balancing the network:
              Trial  1: relative flow change = 0.000128
    20:20:00: Balanced after 1 trials
   
  WARNING: Negative pressures at 20:20:00 hrs.
  
    20:25:00: Balancing the network:
              Trial  1: relative flow change = 0.000128
    20:25:00: Balanced after 1 trials
   
  WARNING: Negative pressures at 20:25:00 hrs.
  
    20:30:00: Balancing the network:
              Trial  1: relative flow change = 0.003924
              Trial  2: relative flow change = 0.000000
    20:30:00: Balanced after 2 trials
   
  WARNING: Negative pressures at 20:30:00 hrs.
  
    20:35:00: Balancing the network:
              Trial  1: relative flow change = 0.000125
    20:35:00: Balanced after 1 trials
   
  WARNING: Negative pressures at 20:35:00 hrs.
  
    20:40:00: Balancing the network:
              Trial  1: relative flow change = 0.000125
    20:40:00: Balanced after 1 trials
   
  WARNING: Negative pressures at 20:40:00 hrs.
  
    20:45:00: Balancing the network:
              Trial  1: relative flow change = 0.000125
    20:45:00: Balanced after 1 trials
   
  WARNING: Negative pressures at 20:45:00 hrs.
  
    20:50:00: Balancing the network:
              Trial  1: relative flow change = 0.000125
    20:50:00: Balanced after 1 trials
   
  WARNING: Negative pressures at 20:50:00 hrs.
  
    20:55:00: Balancing the network:
              Trial  1: relative flow change = 0.000125
    20:55:00: Balanced after 1 trials
   
  WARNING: Negative pressures at 20:55:00 hrs.
  
    21:00:00: Balancing the network:
              Trial  1: relative flow change = 0.003833
              Trial  2: relative flow change = 0.000001
    21:00:00: Balanced after 2 trials
   
  WARNING: Negative pressures at 21:00:00 hrs.
  
    21:05:00: Balancing the network:
              Trial  1: relative flow change = 0.000123
    21:05:00: Balanced after 1 trials
   
  WARNING: Negative pressures at 21:05:00 hrs.
  
    21:10:00: Balancing the network:
              Trial  1: relative flow change = 0.000123
    21:10:00: Balanced after 1 trials
   
  WARNING: Negative pressures at 21:10:00 hrs.
  
    21:15:00: Balancing the network:
              Trial  1: relative flow change = 0.000123
    21:15:00: Balanced after 1 trials
   
  WARNING: Negative pressures at 21:15:00 hrs.
  
    21:20:00: Balancing the network:
              Trial  1: relative flow change = 0.000123
    21:20:00: Balanced after 1 trials
   
  WARNING: Negative pressures at 21:20:00 hrs.
  
    21:25:00: Balancing the network:
              Trial  1: relative flow change = 0.000123
    21:25:00: Balanced after 1 trials
   
  WARNING: Negative pressures at 21:25:00 hrs.
  
    21:30:00: Balancing the network:
              Trial  1: relative flow change = 0.003229
              Trial  2: relative flow change = 0.000001
    21:30:00: Balanced after 2 trials
   
  WARNING: Negative pressures at 21:30:00 hrs.
  
    21:33:29: Pump P1 changed by timer control
    21:33:29: Balancing the network:
              Trial  1: relative flow change = 5.500630
              Trial  2: relative flow change = 0.000007
    21:33:29: Balanced after 2 trials
    21:33:29: Reservoir Source is closed
    21:33:29: Tank Tank1 is emptying at -0.05 m
    21:33:29: Pump P1 changed from open to closed
   
  WARNING: Negative pressures at 21:33:29 hrs.
  
    21:35:00: Balancing the network:
              Trial  1: relative flow change = 0.000000
    21:35:00: Balanced after 1 trials
   
  WARNING: Negative pressures at 21:35:00 hrs.
  
    21:40:00: Balancing the network:
              Trial  1: relative flow change = 0.000000
    21:40:00: Balanced after 1 trials
   
  WARNING: Negative pressures at 21:40:00 hrs.
  
    21:45:00: Balancing the network:
              Trial  1: relative flow change = 0.000000
    21:45:00: Balanced after 1 trials
   
  WARNING: Negative pressures at 21:45:00 hrs.
  
    21:50:00: Balancing the network:
              Trial  1: relative flow change = 0.000000
    21:50:00: Balanced after 1 trials
   
  WARNING: Negative pressures at 21:50:00 hrs.
  
    21:55:00: Balancing the network:
              Trial  1: relative flow change = 0.000000
    21:55:00: Balanced after 1 trials
   
  WARNING: Negative pressures at 21:55:00 hrs.
  
    22:00:00: Balancing the network:
              Trial  1: relative flow change = 0.009885
              Trial  2: relative flow change = 0.000000
    22:00:00: Balanced after 2 trials
   
  WARNING: Negative pressures at 22:00:00 hrs.
  
    22:05:00: Balancing the network:
              Trial  1: relative flow change = 0.000000
    22:05:00: Balanced after 1 trials
   
  WARNING: Negative pressures at 22:05:00 hrs.
  
    22:10:00: Balancing the network:
              Trial  1: relative flow change = 0.000000
    22:10:00: Balanced after 1 trials
   
  WARNING: Negative pressures at 22:10:00 hrs.
  
    22:15:00: Balancing the network:
              Trial  1: relative flow change = 0.000000
    22:15:00: Balanced after 1 trials
   
  WARNING: Negative pressures at 22:15:00 hrs.
  
    22:20:00: Balancing the network:
              Trial  1: relative flow change = 0.000000
    22:20:00: Balanced after 1 trials
   
  WARNING: Negative pressures at 22:20:00 hrs.
  
    22:25:00: Balancing the network:
              Trial  1: relative flow change = 0.000000
    22:25:00: Balanced after 1 trials
   
  WARNING: Negative pressures at 22:25:00 hrs.
  
    22:30:00: Balancing the network:
              Trial  1: relative flow change = 0.020689
              Trial  2: relative flow change = 0.000000
    22:30:00: Balanced after 2 trials
   
  WARNING: Negative pressures at 22:30:00 hrs.
  
    22:35:00: Balancing the network:
              Trial  1: relative flow change = 0.000000
    22:35:00: Balanced after 1 trials
   
  WARNING: Negative pressures at 22:35:00 hrs.
  
    22:40:00: Balancing the network:
              Trial  1: relative flow change = 0.000000
    22:40:00: Balanced after 1 trials
   
  WARNING: Negative pressures at 22:40:00 hrs.
  
    22:45:00: Balancing the network:
              Trial  1: relative flow change = 0.000000
    22:45:00: Balanced after 1 trials
   
  WARNING: Negative pressures at 22:45:00 hrs.
  
    22:50:00: Balancing the network:
              Trial  1: relative flow change = 0.000000
    22:50:00: Balanced after 1 trials
   
  WARNING: Negative pressures at 22:50:00 hrs.
  
    22:55:00: Balancing the network:
              Trial  1: relative flow change = 0.000000
    22:55:00: Balanced after 1 trials
   
  WARNING: Negative pressures at 22:55:00 hrs.
  
    23:00:00: Balancing the network:
              Trial  1: relative flow change = 0.043870
              Trial  2: relative flow change = 0.000000
    23:00:00: Balanced after 2 trials
   
  WARNING: Negative pressures at 23:00:00 hrs.
  
    23:05:00: Balancing the network:
              Trial  1: relative flow change = 0.000000
    23:05:00: Balanced after 1 trials
   
  WARNING: Negative pressures at 23:05:00 hrs.
  
    23:10:00: Balancing the network:
              Trial  1: relative flow change = 0.000000
    23:10:00: Balanced after 1 trials
   
  WARNING: Negative pressures at 23:10:00 hrs.
  
    23:15:00: Balancing the network:
              Trial  1: relative flow change = 0.000000
    23:15:00: Balanced after 1 trials
   
  WARNING: Negative pressures at 23:15:00 hrs.
  
    23:20:00: Balancing the network:
              Trial  1: relative flow change = 0.000000
    23:20:00: Balanced after 1 trials
   
  WARNING: Negative pressures at 23:20:00 hrs.
  
    23:25:00: Balancing the network:
              Trial  1: relative flow change = 0.000000
    23:25:00: Balanced after 1 trials
   
  WARNING: Negative pressures at 23:25:00 hrs.
  
    23:28:05: Pump P1 changed by timer control
    23:28:05: Balancing the network:
              Trial  1: relative flow change = 0.994089
              Trial  2: relative flow change = 0.978299
              Trial  3: relative flow change = 0.944842
              Trial  4: relative flow change = 0.851076
              Trial  5: relative flow change = 0.620353
              Trial  6: relative flow change = 0.267326
              Trial  7: relative flow change = 0.041964
              Trial  8: relative flow change = 0.001016
              Trial  9: relative flow change = 0.000001
    23:28:05: Balanced after 9 trials
    23:28:05: Reservoir Source is emptying
    23:28:05: Tank Tank1 is filling at -1.39 m
    23:28:05: Pump P1 changed from closed to open
   
  WARNING: Negative pressures at 23:28:05 hrs.
  
    23:30:00: Balancing the network:
              Trial  1: relative flow change = 0.011999
              Trial  2: relative flow change = 0.000002
    23:30:00: Balanced after 2 trials
   
  WARNING: Negative pressures at 23:30:00 hrs.
  
    23:35:00: Balancing the network:
              Trial  1: relative flow change = 0.000143
    23:35:00: Balanced after 1 trials
   
  WARNING: Negative pressures at 23:35:00 hrs.
  
    23:40:00: Balancing the network:
              Trial  1: relative flow change = 0.000143
    23:40:00: Balanced after 1 trials
   
  WARNING: Negative pressures at 23:40:00 hrs.
  
    23:45:00: Balancing the network:
              Trial  1: relative flow change = 0.000143
    23:45:00: Balanced after 1 trials
   
  WARNING: Negative pressures at 23:45:00 hrs.
  
    23:48:00: Pump P1 changed by timer control
    23:48:00: Balancing the network:
              Trial  1: relative flow change = 6.355529
              Trial  2: relative flow change = 0.000008
    23:48:00: Balanced after 2 trials
    23:48:00: Reservoir Source is closed
    23:48:00: Tank Tank1 is emptying at -1.16 m
    23:48:00: Pump P1 changed from open to closed
   
  WARNING: Negative pressures at 23:48:00 hrs.
  
    23:50:00: Balancing the network:
              Trial  1: relative flow change = 0.000000
    23:50:00: Balanced after 1 trials
   
  WARNING: Negative pressures at 23:50:00 hrs.
  
    23:55:00: Balancing the network:
              Trial  1: relative flow change = 0.000000
    23:55:00: Balanced after 1 trials
   
  WARNING: Negative pressures at 23:55:00 hrs.
  
    24:00:00: Balancing the network:
              Trial  1: relative flow change = 0.008266
              Trial  2: relative flow change = 0.000000
    24:00:00: Balanced after 2 trials
   
  WARNING: Negative pressures at 24:00:00 hrs.
  
  Analysis ended Wed May 07 23:47:56 2025
