  Page 1                                    Wed May 07 07:36:00 2025

  ******************************************************************
  *                           E P A N E T                          *
  *                   Hydraulic and Water Quality                  *
  *                   Analysis for Pipe Networks                   *
  *                         Version 2.00.12                        *
  ******************************************************************
  
  Analysis begun Wed May 07 07:36:00 2025

   
  Hydraulic Status:
  -----------------------------------------------------------------------
     0:00:00: Pump P1 changed by timer control
     0:00:00: Balancing the network:
              Trial  1: relative flow change = 2.930009
              Trial  2: relative flow change = 0.000002
     0:00:00: Balanced after 2 trials
     0:00:00: Reservoir Source is closed
     0:00:00: Tank Tank1 is emptying at 4.00 m
     0:00:00: Pump P1 closed
   
     0:00:02: Pump P1 changed by timer control
     0:00:02: Balancing the network:
              Trial  1: relative flow change = 0.994829
              Trial  2: relative flow change = 0.980735
              Trial  3: relative flow change = 0.950691
              Trial  4: relative flow change = 0.865210
              Trial  5: relative flow change = 0.648039
              Trial  6: relative flow change = 0.295537
              Trial  7: relative flow change = 0.051261
              Trial  8: relative flow change = 0.001499
              Trial  9: relative flow change = 0.000002
     0:00:02: Balanced after 9 trials
     0:00:02: Reservoir Source is emptying
     0:00:02: Tank Tank1 is filling at 4.00 m
     0:00:02: Pump P1 changed from closed to open
   
     0:05:00: Balancing the network:
              Trial  1: relative flow change = 0.000143
     0:05:00: Balanced after 1 trials
   
     0:10:00: Balancing the network:
              Trial  1: relative flow change = 0.000144
     0:10:00: Balanced after 1 trials
   
     0:15:00: Balancing the network:
              Trial  1: relative flow change = 0.000144
     0:15:00: Balanced after 1 trials
   
     0:20:00: Balancing the network:
              Trial  1: relative flow change = 0.000144
     0:20:00: Balanced after 1 trials
   
     0:25:00: Balancing the network:
              Trial  1: relative flow change = 0.000144
     0:25:00: Balanced after 1 trials
   
     0:30:00: Balancing the network:
              Trial  1: relative flow change = 0.003404
              Trial  2: relative flow change = 0.000000
     0:30:00: Balanced after 2 trials
   
     0:35:00: Balancing the network:
              Trial  1: relative flow change = 0.000147
     0:35:00: Balanced after 1 trials
   
     0:40:00: Balancing the network:
              Trial  1: relative flow change = 0.000147
     0:40:00: Balanced after 1 trials
   
     0:45:00: Balancing the network:
              Trial  1: relative flow change = 0.000147
     0:45:00: Balanced after 1 trials
   
     0:50:00: Balancing the network:
              Trial  1: relative flow change = 0.000147
     0:50:00: Balanced after 1 trials
   
     0:55:00: Balancing the network:
              Trial  1: relative flow change = 0.000147
     0:55:00: Balanced after 1 trials
   
     1:00:00: Balancing the network:
              Trial  1: relative flow change = 0.004902
              Trial  2: relative flow change = 0.000000
     1:00:00: Balanced after 2 trials
   
     1:05:00: Balancing the network:
              Trial  1: relative flow change = 0.000152
     1:05:00: Balanced after 1 trials
   
     1:10:00: Balancing the network:
              Trial  1: relative flow change = 0.000152
     1:10:00: Balanced after 1 trials
   
     1:15:00: Balancing the network:
              Trial  1: relative flow change = 0.000152
     1:15:00: Balanced after 1 trials
   
     1:20:00: Balancing the network:
              Trial  1: relative flow change = 0.000152
     1:20:00: Balanced after 1 trials
   
     1:25:00: Balancing the network:
              Trial  1: relative flow change = 0.000152
     1:25:00: Balanced after 1 trials
   
     1:30:00: Balancing the network:
              Trial  1: relative flow change = 0.005634
              Trial  2: relative flow change = 0.000000
     1:30:00: Balanced after 2 trials
   
     1:35:00: Balancing the network:
              Trial  1: relative flow change = 0.000158
     1:35:00: Balanced after 1 trials
   
     1:40:00: Balancing the network:
              Trial  1: relative flow change = 0.000158
     1:40:00: Balanced after 1 trials
   
     1:45:00: Balancing the network:
              Trial  1: relative flow change = 0.000158
     1:45:00: Balanced after 1 trials
   
     1:50:00: Balancing the network:
              Trial  1: relative flow change = 0.000158
     1:50:00: Balanced after 1 trials
   
     1:55:00: Balancing the network:
              Trial  1: relative flow change = 0.000158
     1:55:00: Balanced after 1 trials
   
     2:00:00: Balancing the network:
              Trial  1: relative flow change = 0.005729
              Trial  2: relative flow change = 0.000000
     2:00:00: Balanced after 2 trials
   
     2:05:00: Balancing the network:
              Trial  1: relative flow change = 0.000163
     2:05:00: Balanced after 1 trials
   
     2:10:00: Balancing the network:
              Trial  1: relative flow change = 0.000163
     2:10:00: Balanced after 1 trials
   
     2:15:00: Balancing the network:
              Trial  1: relative flow change = 0.000163
     2:15:00: Balanced after 1 trials
   
     2:20:00: Balancing the network:
              Trial  1: relative flow change = 0.000163
     2:20:00: Balanced after 1 trials
   
     2:25:00: Balancing the network:
              Trial  1: relative flow change = 0.000163
     2:25:00: Balanced after 1 trials
   
     2:30:00: Balancing the network:
              Trial  1: relative flow change = 0.005331
              Trial  2: relative flow change = 0.000000
     2:30:00: Balanced after 2 trials
   
     2:35:00: Balancing the network:
              Trial  1: relative flow change = 0.000168
     2:35:00: Balanced after 1 trials
   
     2:40:00: Balancing the network:
              Trial  1: relative flow change = 0.000168
     2:40:00: Balanced after 1 trials
   
     2:45:00: Balancing the network:
              Trial  1: relative flow change = 0.000168
     2:45:00: Balanced after 1 trials
   
     2:50:00: Balancing the network:
              Trial  1: relative flow change = 0.000168
     2:50:00: Balanced after 1 trials
   
     2:55:00: Balancing the network:
              Trial  1: relative flow change = 0.000168
     2:55:00: Balanced after 1 trials
   
     3:00:00: Balancing the network:
              Trial  1: relative flow change = 0.004568
              Trial  2: relative flow change = 0.000001
     3:00:00: Balanced after 2 trials
   
     3:05:00: Balancing the network:
              Trial  1: relative flow change = 0.000172
     3:05:00: Balanced after 1 trials
   
     3:10:00: Balancing the network:
              Trial  1: relative flow change = 0.000172
     3:10:00: Balanced after 1 trials
   
     3:15:00: Balancing the network:
              Trial  1: relative flow change = 0.000172
     3:15:00: Balanced after 1 trials
   
     3:20:00: Balancing the network:
              Trial  1: relative flow change = 0.000172
     3:20:00: Balanced after 1 trials
   
     3:25:00: Balancing the network:
              Trial  1: relative flow change = 0.000172
     3:25:00: Balanced after 1 trials
   
     3:30:00: Balancing the network:
              Trial  1: relative flow change = 0.003560
              Trial  2: relative flow change = 0.000001
     3:30:00: Balanced after 2 trials
   
     3:35:00: Balancing the network:
              Trial  1: relative flow change = 0.000175
     3:35:00: Balanced after 1 trials
   
     3:40:00: Balancing the network:
              Trial  1: relative flow change = 0.000175
     3:40:00: Balanced after 1 trials
   
     3:45:00: Balancing the network:
              Trial  1: relative flow change = 0.000175
     3:45:00: Balanced after 1 trials
   
     3:50:00: Balancing the network:
              Trial  1: relative flow change = 0.000175
     3:50:00: Balanced after 1 trials
   
     3:55:00: Balancing the network:
              Trial  1: relative flow change = 0.000175
     3:55:00: Balanced after 1 trials
   
     4:00:00: Balancing the network:
              Trial  1: relative flow change = 0.002408
              Trial  2: relative flow change = 0.000001
     4:00:00: Balanced after 2 trials
   
     4:05:00: Balancing the network:
              Trial  1: relative flow change = 0.000177
     4:05:00: Balanced after 1 trials
   
     4:10:00: Balancing the network:
              Trial  1: relative flow change = 0.000177
     4:10:00: Balanced after 1 trials
   
     4:15:00: Balancing the network:
              Trial  1: relative flow change = 0.000177
     4:15:00: Balanced after 1 trials
   
     4:20:00: Balancing the network:
              Trial  1: relative flow change = 0.000177
     4:20:00: Balanced after 1 trials
   
     4:25:00: Balancing the network:
              Trial  1: relative flow change = 0.000177
     4:25:00: Balanced after 1 trials
   
     4:30:00: Balancing the network:
              Trial  1: relative flow change = 0.001203
              Trial  2: relative flow change = 0.000001
     4:30:00: Balanced after 2 trials
   
     4:35:00: Balancing the network:
              Trial  1: relative flow change = 0.000177
     4:35:00: Balanced after 1 trials
   
     4:40:00: Balancing the network:
              Trial  1: relative flow change = 0.000177
     4:40:00: Balanced after 1 trials
   
     4:45:00: Balancing the network:
              Trial  1: relative flow change = 0.000177
     4:45:00: Balanced after 1 trials
   
     4:50:00: Balancing the network:
              Trial  1: relative flow change = 0.000177
     4:50:00: Balanced after 1 trials
   
     4:55:00: Balancing the network:
              Trial  1: relative flow change = 0.000177
     4:55:00: Balanced after 1 trials
   
     4:58:48: Pump P1 changed by timer control
     4:58:48: Balancing the network:
              Trial  1: relative flow change = 7.819683
              Trial  2: relative flow change = 0.000010
     4:58:48: Balanced after 2 trials
     4:58:48: Reservoir Source is closed
     4:58:48: Tank Tank1 is emptying at 7.73 m
     4:58:48: Pump P1 changed from open to closed
   
     4:59:05: Pump P1 changed by timer control
     4:59:05: Balancing the network:
              Trial  1: relative flow change = 0.996626
              Trial  2: relative flow change = 0.981986
              Trial  3: relative flow change = 0.950185
              Trial  4: relative flow change = 0.854597
              Trial  5: relative flow change = 0.611608
              Trial  6: relative flow change = 0.248780
              Trial  7: relative flow change = 0.034742
              Trial  8: relative flow change = 0.000672
     4:59:05: Balanced after 8 trials
     4:59:05: Reservoir Source is emptying
     4:59:05: Tank Tank1 is filling at 7.73 m
     4:59:05: Pump P1 changed from closed to open
   
     5:00:00: Balancing the network:
              Trial  1: relative flow change = 0.001360
              Trial  2: relative flow change = 0.000001
     5:00:00: Balanced after 2 trials
   
     5:05:00: Balancing the network:
              Trial  1: relative flow change = 0.000176
     5:05:00: Balanced after 1 trials
   
     5:10:00: Balancing the network:
              Trial  1: relative flow change = 0.000176
     5:10:00: Balanced after 1 trials
   
     5:15:00: Balancing the network:
              Trial  1: relative flow change = 0.000176
     5:15:00: Balanced after 1 trials
   
     5:20:00: Balancing the network:
              Trial  1: relative flow change = 0.000176
     5:20:00: Balanced after 1 trials
   
     5:25:00: Balancing the network:
              Trial  1: relative flow change = 0.000176
     5:25:00: Balanced after 1 trials
   
     5:30:00: Balancing the network:
              Trial  1: relative flow change = 0.002461
              Trial  2: relative flow change = 0.000001
     5:30:00: Balanced after 2 trials
   
     5:35:00: Balancing the network:
              Trial  1: relative flow change = 0.000174
     5:35:00: Balanced after 1 trials
   
     5:40:00: Balancing the network:
              Trial  1: relative flow change = 0.000174
     5:40:00: Balanced after 1 trials
   
     5:45:00: Balancing the network:
              Trial  1: relative flow change = 0.000174
     5:45:00: Balanced after 1 trials
   
     5:50:00: Balancing the network:
              Trial  1: relative flow change = 0.000174
     5:50:00: Balanced after 1 trials
   
     5:55:00: Balancing the network:
              Trial  1: relative flow change = 0.000174
     5:55:00: Balanced after 1 trials
   
     6:00:00: Balancing the network:
              Trial  1: relative flow change = 0.003463
              Trial  2: relative flow change = 0.000001
     6:00:00: Balanced after 2 trials
   
     6:05:00: Balancing the network:
              Trial  1: relative flow change = 0.000171
     6:05:00: Balanced after 1 trials
   
     6:10:00: Balancing the network:
              Trial  1: relative flow change = 0.000171
     6:10:00: Balanced after 1 trials
   
     6:15:00: Balancing the network:
              Trial  1: relative flow change = 0.000171
     6:15:00: Balanced after 1 trials
   
     6:20:00: Balancing the network:
              Trial  1: relative flow change = 0.000171
     6:20:00: Balanced after 1 trials
   
     6:25:00: Balancing the network:
              Trial  1: relative flow change = 0.000171
     6:25:00: Balanced after 1 trials
   
     6:30:00: Balancing the network:
              Trial  1: relative flow change = 0.004278
              Trial  2: relative flow change = 0.000001
     6:30:00: Balanced after 2 trials
   
     6:35:00: Balancing the network:
              Trial  1: relative flow change = 0.000166
     6:35:00: Balanced after 1 trials
   
     6:40:00: Balancing the network:
              Trial  1: relative flow change = 0.000167
     6:40:00: Balanced after 1 trials
   
     6:45:00: Balancing the network:
              Trial  1: relative flow change = 0.000167
     6:45:00: Balanced after 1 trials
   
     6:50:00: Balancing the network:
              Trial  1: relative flow change = 0.000167
     6:50:00: Balanced after 1 trials
   
     6:55:00: Balancing the network:
              Trial  1: relative flow change = 0.000167
     6:55:00: Balanced after 1 trials
   
     7:00:00: Balancing the network:
              Trial  1: relative flow change = 0.004893
              Trial  2: relative flow change = 0.000001
     7:00:00: Balanced after 2 trials
   
     7:05:00: Balancing the network:
              Trial  1: relative flow change = 0.000162
     7:05:00: Balanced after 1 trials
   
     7:10:00: Balancing the network:
              Trial  1: relative flow change = 0.000162
     7:10:00: Balanced after 1 trials
   
     7:15:00: Balancing the network:
              Trial  1: relative flow change = 0.000162
     7:15:00: Balanced after 1 trials
   
     7:20:00: Balancing the network:
              Trial  1: relative flow change = 0.000162
     7:20:00: Balanced after 1 trials
   
     7:25:00: Balancing the network:
              Trial  1: relative flow change = 0.000162
     7:25:00: Balanced after 1 trials
   
     7:30:00: Balancing the network:
              Trial  1: relative flow change = 0.005297
              Trial  2: relative flow change = 0.000001
     7:30:00: Balanced after 2 trials
   
     7:35:00: Balancing the network:
              Trial  1: relative flow change = 0.000156
     7:35:00: Balanced after 1 trials
   
     7:40:00: Balancing the network:
              Trial  1: relative flow change = 0.000156
     7:40:00: Balanced after 1 trials
   
     7:45:00: Balancing the network:
              Trial  1: relative flow change = 0.000156
     7:45:00: Balanced after 1 trials
   
     7:50:00: Balancing the network:
              Trial  1: relative flow change = 0.000156
     7:50:00: Balanced after 1 trials
   
     7:55:00: Balancing the network:
              Trial  1: relative flow change = 0.000156
     7:55:00: Balanced after 1 trials
   
     8:00:00: Balancing the network:
              Trial  1: relative flow change = 0.005486
              Trial  2: relative flow change = 0.000001
     8:00:00: Balanced after 2 trials
   
     8:05:00: Balancing the network:
              Trial  1: relative flow change = 0.000151
     8:05:00: Balanced after 1 trials
   
     8:10:00: Balancing the network:
              Trial  1: relative flow change = 0.000151
     8:10:00: Balanced after 1 trials
   
     8:15:00: Balancing the network:
              Trial  1: relative flow change = 0.000151
     8:15:00: Balanced after 1 trials
   
     8:20:00: Balancing the network:
              Trial  1: relative flow change = 0.000151
     8:20:00: Balanced after 1 trials
   
     8:25:00: Balancing the network:
              Trial  1: relative flow change = 0.000151
     8:25:00: Balanced after 1 trials
   
     8:30:00: Balancing the network:
              Trial  1: relative flow change = 0.005475
              Trial  2: relative flow change = 0.000001
     8:30:00: Balanced after 2 trials
   
     8:35:00: Balancing the network:
              Trial  1: relative flow change = 0.000145
     8:35:00: Balanced after 1 trials
   
     8:40:00: Balancing the network:
              Trial  1: relative flow change = 0.000145
     8:40:00: Balanced after 1 trials
   
     8:45:00: Balancing the network:
              Trial  1: relative flow change = 0.000145
     8:45:00: Balanced after 1 trials
   
     8:50:00: Balancing the network:
              Trial  1: relative flow change = 0.000145
     8:50:00: Balanced after 1 trials
   
     8:55:00: Balancing the network:
              Trial  1: relative flow change = 0.000145
     8:55:00: Balanced after 1 trials
   
     9:00:00: Balancing the network:
              Trial  1: relative flow change = 0.005273
              Trial  2: relative flow change = 0.000001
     9:00:00: Balanced after 2 trials
   
     9:05:00: Balancing the network:
              Trial  1: relative flow change = 0.000140
     9:05:00: Balanced after 1 trials
   
     9:10:00: Balancing the network:
              Trial  1: relative flow change = 0.000140
     9:10:00: Balanced after 1 trials
   
     9:15:00: Balancing the network:
              Trial  1: relative flow change = 0.000140
     9:15:00: Balanced after 1 trials
   
     9:20:00: Balancing the network:
              Trial  1: relative flow change = 0.000140
     9:20:00: Balanced after 1 trials
   
     9:25:00: Balancing the network:
              Trial  1: relative flow change = 0.000140
     9:25:00: Balanced after 1 trials
   
     9:30:00: Balancing the network:
              Trial  1: relative flow change = 0.004909
              Trial  2: relative flow change = 0.000001
     9:30:00: Balanced after 2 trials
   
     9:35:00: Balancing the network:
              Trial  1: relative flow change = 0.000135
     9:35:00: Balanced after 1 trials
   
     9:40:00: Balancing the network:
              Trial  1: relative flow change = 0.000135
     9:40:00: Balanced after 1 trials
   
     9:45:00: Balancing the network:
              Trial  1: relative flow change = 0.000135
     9:45:00: Balanced after 1 trials
   
     9:50:00: Balancing the network:
              Trial  1: relative flow change = 0.000135
     9:50:00: Balanced after 1 trials
   
     9:55:00: Balancing the network:
              Trial  1: relative flow change = 0.000135
     9:55:00: Balanced after 1 trials
   
     9:57:42: Pump P1 changed by timer control
     9:57:42: Balancing the network:
              Trial  1: relative flow change = 5.763463
              Trial  2: relative flow change = 0.000007
     9:57:42: Balanced after 2 trials
     9:57:42: Reservoir Source is closed
     9:57:42: Tank Tank1 is emptying at 11.26 m
     9:57:42: Pump P1 changed from open to closed
   
    10:00:00: Balancing the network:
              Trial  1: relative flow change = 0.026354
              Trial  2: relative flow change = 0.000000
    10:00:00: Balanced after 2 trials
   
    10:05:00: Balancing the network:
              Trial  1: relative flow change = 0.000000
    10:05:00: Balanced after 1 trials
   
    10:10:00: Balancing the network:
              Trial  1: relative flow change = 0.000000
    10:10:00: Balanced after 1 trials
   
    10:15:00: Balancing the network:
              Trial  1: relative flow change = 0.000000
    10:15:00: Balanced after 1 trials
   
    10:20:00: Balancing the network:
              Trial  1: relative flow change = 0.000000
    10:20:00: Balanced after 1 trials
   
    10:25:00: Balancing the network:
              Trial  1: relative flow change = 0.000000
    10:25:00: Balanced after 1 trials
   
    10:30:00: Balancing the network:
              Trial  1: relative flow change = 0.022160
              Trial  2: relative flow change = 0.000000
    10:30:00: Balanced after 2 trials
   
    10:35:00: Balancing the network:
              Trial  1: relative flow change = 0.000000
    10:35:00: Balanced after 1 trials
   
    10:40:00: Balancing the network:
              Trial  1: relative flow change = 0.000000
    10:40:00: Balanced after 1 trials
   
    10:45:00: Balancing the network:
              Trial  1: relative flow change = 0.000000
    10:45:00: Balanced after 1 trials
   
    10:50:00: Balancing the network:
              Trial  1: relative flow change = 0.000000
    10:50:00: Balanced after 1 trials
   
    10:55:00: Balancing the network:
              Trial  1: relative flow change = 0.000000
    10:55:00: Balanced after 1 trials
   
    11:00:00: Balancing the network:
              Trial  1: relative flow change = 0.017720
              Trial  2: relative flow change = 0.000000
    11:00:00: Balanced after 2 trials
   
    11:05:00: Balancing the network:
              Trial  1: relative flow change = 0.000000
    11:05:00: Balanced after 1 trials
   
    11:10:00: Balancing the network:
              Trial  1: relative flow change = 0.000000
    11:10:00: Balanced after 1 trials
   
    11:15:00: Balancing the network:
              Trial  1: relative flow change = 0.000000
    11:15:00: Balanced after 1 trials
   
    11:20:00: Balancing the network:
              Trial  1: relative flow change = 0.000000
    11:20:00: Balanced after 1 trials
   
    11:25:00: Balancing the network:
              Trial  1: relative flow change = 0.000000
    11:25:00: Balanced after 1 trials
   
    11:30:00: Balancing the network:
              Trial  1: relative flow change = 0.013196
              Trial  2: relative flow change = 0.000000
    11:30:00: Balanced after 2 trials
   
    11:35:00: Balancing the network:
              Trial  1: relative flow change = 0.000000
    11:35:00: Balanced after 1 trials
   
    11:40:00: Balancing the network:
              Trial  1: relative flow change = 0.000000
    11:40:00: Balanced after 1 trials
   
    11:45:00: Balancing the network:
              Trial  1: relative flow change = 0.000000
    11:45:00: Balanced after 1 trials
   
    11:50:00: Balancing the network:
              Trial  1: relative flow change = 0.000000
    11:50:00: Balanced after 1 trials
   
    11:55:00: Balancing the network:
              Trial  1: relative flow change = 0.000000
    11:55:00: Balanced after 1 trials
   
    12:00:00: Balancing the network:
              Trial  1: relative flow change = 0.008712
              Trial  2: relative flow change = 0.000000
    12:00:00: Balanced after 2 trials
   
    12:05:00: Balancing the network:
              Trial  1: relative flow change = 0.000000
    12:05:00: Balanced after 1 trials
   
    12:10:00: Balancing the network:
              Trial  1: relative flow change = 0.000000
    12:10:00: Balanced after 1 trials
   
    12:15:00: Balancing the network:
              Trial  1: relative flow change = 0.000000
    12:15:00: Balanced after 1 trials
   
    12:20:00: Balancing the network:
              Trial  1: relative flow change = 0.000000
    12:20:00: Balanced after 1 trials
   
    12:25:00: Balancing the network:
              Trial  1: relative flow change = 0.000000
    12:25:00: Balanced after 1 trials
   
    12:30:00: Balancing the network:
              Trial  1: relative flow change = 0.004394
              Trial  2: relative flow change = 0.000000
    12:30:00: Balanced after 2 trials
   
    12:35:00: Balancing the network:
              Trial  1: relative flow change = 0.000000
    12:35:00: Balanced after 1 trials
   
    12:40:00: Balancing the network:
              Trial  1: relative flow change = 0.000000
    12:40:00: Balanced after 1 trials
   
    12:45:00: Balancing the network:
              Trial  1: relative flow change = 0.000000
    12:45:00: Balanced after 1 trials
   
    12:50:00: Balancing the network:
              Trial  1: relative flow change = 0.000000
    12:50:00: Balanced after 1 trials
   
    12:55:00: Balancing the network:
              Trial  1: relative flow change = 0.000000
    12:55:00: Balanced after 1 trials
   
    13:00:00: Balancing the network:
              Trial  1: relative flow change = 0.003567
              Trial  2: relative flow change = 0.000000
    13:00:00: Balanced after 2 trials
   
    13:05:00: Balancing the network:
              Trial  1: relative flow change = 0.000000
    13:05:00: Balanced after 1 trials
   
    13:10:00: Balancing the network:
              Trial  1: relative flow change = 0.000000
    13:10:00: Balanced after 1 trials
   
    13:15:00: Balancing the network:
              Trial  1: relative flow change = 0.000000
    13:15:00: Balanced after 1 trials
   
    13:20:00: Balancing the network:
              Trial  1: relative flow change = 0.000000
    13:20:00: Balanced after 1 trials
   
    13:25:00: Balancing the network:
              Trial  1: relative flow change = 0.000000
    13:25:00: Balanced after 1 trials
   
    13:30:00: Balancing the network:
              Trial  1: relative flow change = 0.006561
              Trial  2: relative flow change = 0.000000
    13:30:00: Balanced after 2 trials
   
    13:35:00: Balancing the network:
              Trial  1: relative flow change = 0.000000
    13:35:00: Balanced after 1 trials
   
    13:40:00: Balancing the network:
              Trial  1: relative flow change = 0.000000
    13:40:00: Balanced after 1 trials
   
    13:45:00: Balancing the network:
              Trial  1: relative flow change = 0.000000
    13:45:00: Balanced after 1 trials
   
    13:50:00: Balancing the network:
              Trial  1: relative flow change = 0.000000
    13:50:00: Balanced after 1 trials
   
    13:55:00: Balancing the network:
              Trial  1: relative flow change = 0.000000
    13:55:00: Balanced after 1 trials
   
    14:00:00: Balancing the network:
              Trial  1: relative flow change = 0.008949
              Trial  2: relative flow change = 0.000000
    14:00:00: Balanced after 2 trials
   
    14:05:00: Balancing the network:
              Trial  1: relative flow change = 0.000000
    14:05:00: Balanced after 1 trials
   
    14:10:00: Balancing the network:
              Trial  1: relative flow change = 0.000000
    14:10:00: Balanced after 1 trials
   
    14:15:00: Balancing the network:
              Trial  1: relative flow change = 0.000000
    14:15:00: Balanced after 1 trials
   
    14:20:00: Balancing the network:
              Trial  1: relative flow change = 0.000000
    14:20:00: Balanced after 1 trials
   
    14:25:00: Balancing the network:
              Trial  1: relative flow change = 0.000000
    14:25:00: Balanced after 1 trials
   
    14:30:00: Balancing the network:
              Trial  1: relative flow change = 0.010608
              Trial  2: relative flow change = 0.000000
    14:30:00: Balanced after 2 trials
   
    14:35:00: Balancing the network:
              Trial  1: relative flow change = 0.000000
    14:35:00: Balanced after 1 trials
   
    14:40:00: Balancing the network:
              Trial  1: relative flow change = 0.000000
    14:40:00: Balanced after 1 trials
   
    14:45:00: Balancing the network:
              Trial  1: relative flow change = 0.000000
    14:45:00: Balanced after 1 trials
   
    14:50:00: Balancing the network:
              Trial  1: relative flow change = 0.000000
    14:50:00: Balanced after 1 trials
   
    14:55:00: Balancing the network:
              Trial  1: relative flow change = 0.000000
    14:55:00: Balanced after 1 trials
   
    15:00:00: Balancing the network:
              Trial  1: relative flow change = 0.011419
              Trial  2: relative flow change = 0.000000
    15:00:00: Balanced after 2 trials
   
    15:05:00: Balancing the network:
              Trial  1: relative flow change = 0.000000
    15:05:00: Balanced after 1 trials
   
    15:10:00: Balancing the network:
              Trial  1: relative flow change = 0.000000
    15:10:00: Balanced after 1 trials
   
    15:15:00: Balancing the network:
              Trial  1: relative flow change = 0.000000
    15:15:00: Balanced after 1 trials
   
    15:20:00: Balancing the network:
              Trial  1: relative flow change = 0.000000
    15:20:00: Balanced after 1 trials
   
    15:25:00: Balancing the network:
              Trial  1: relative flow change = 0.000000
    15:25:00: Balanced after 1 trials
   
    15:30:00: Balancing the network:
              Trial  1: relative flow change = 0.011285
              Trial  2: relative flow change = 0.000000
    15:30:00: Balanced after 2 trials
   
    15:35:00: Balancing the network:
              Trial  1: relative flow change = 0.000000
    15:35:00: Balanced after 1 trials
   
    15:40:00: Balancing the network:
              Trial  1: relative flow change = 0.000000
    15:40:00: Balanced after 1 trials
   
    15:45:00: Balancing the network:
              Trial  1: relative flow change = 0.000000
    15:45:00: Balanced after 1 trials
   
    15:50:00: Balancing the network:
              Trial  1: relative flow change = 0.000000
    15:50:00: Balanced after 1 trials
   
    15:55:00: Balancing the network:
              Trial  1: relative flow change = 0.000000
    15:55:00: Balanced after 1 trials
   
    16:00:00: Balancing the network:
              Trial  1: relative flow change = 0.010669
              Trial  2: relative flow change = 0.000000
    16:00:00: Balanced after 2 trials
   
    16:05:00: Balancing the network:
              Trial  1: relative flow change = 0.000000
    16:05:00: Balanced after 1 trials
   
    16:10:00: Balancing the network:
              Trial  1: relative flow change = 0.000000
    16:10:00: Balanced after 1 trials
   
    16:15:00: Balancing the network:
              Trial  1: relative flow change = 0.000000
    16:15:00: Balanced after 1 trials
   
    16:20:00: Balancing the network:
              Trial  1: relative flow change = 0.000000
    16:20:00: Balanced after 1 trials
   
    16:25:00: Balancing the network:
              Trial  1: relative flow change = 0.000000
    16:25:00: Balanced after 1 trials
   
    16:30:00: Balancing the network:
              Trial  1: relative flow change = 0.009461
              Trial  2: relative flow change = 0.000000
    16:30:00: Balanced after 2 trials
   
    16:35:00: Balancing the network:
              Trial  1: relative flow change = 0.000000
    16:35:00: Balanced after 1 trials
   
    16:40:00: Balancing the network:
              Trial  1: relative flow change = 0.000000
    16:40:00: Balanced after 1 trials
   
    16:45:00: Balancing the network:
              Trial  1: relative flow change = 0.000000
    16:45:00: Balanced after 1 trials
   
    16:50:00: Balancing the network:
              Trial  1: relative flow change = 0.000000
    16:50:00: Balanced after 1 trials
   
    16:55:00: Balancing the network:
              Trial  1: relative flow change = 0.000000
    16:55:00: Balanced after 1 trials
   
    17:00:00: Balancing the network:
              Trial  1: relative flow change = 0.007340
              Trial  2: relative flow change = 0.000000
    17:00:00: Balanced after 2 trials
   
    17:05:00: Balancing the network:
              Trial  1: relative flow change = 0.000000
    17:05:00: Balanced after 1 trials
   
    17:10:00: Balancing the network:
              Trial  1: relative flow change = 0.000000
    17:10:00: Balanced after 1 trials
   
    17:15:00: Balancing the network:
              Trial  1: relative flow change = 0.000000
    17:15:00: Balanced after 1 trials
   
    17:20:00: Balancing the network:
              Trial  1: relative flow change = 0.000000
    17:20:00: Balanced after 1 trials
   
    17:25:00: Balancing the network:
              Trial  1: relative flow change = 0.000000
    17:25:00: Balanced after 1 trials
   
    17:30:00: Balancing the network:
              Trial  1: relative flow change = 0.004420
              Trial  2: relative flow change = 0.000000
    17:30:00: Balanced after 2 trials
   
    17:35:00: Balancing the network:
              Trial  1: relative flow change = 0.000000
    17:35:00: Balanced after 1 trials
   
    17:40:00: Balancing the network:
              Trial  1: relative flow change = 0.000000
    17:40:00: Balanced after 1 trials
   
    17:45:00: Balancing the network:
              Trial  1: relative flow change = 0.000000
    17:45:00: Balanced after 1 trials
   
    17:50:00: Balancing the network:
              Trial  1: relative flow change = 0.000000
    17:50:00: Balanced after 1 trials
   
    17:55:00: Balancing the network:
              Trial  1: relative flow change = 0.000000
    17:55:00: Balanced after 1 trials
   
    18:00:00: Balancing the network:
              Trial  1: relative flow change = 0.003966
              Trial  2: relative flow change = 0.000000
    18:00:00: Balanced after 2 trials
   
    18:01:42: Pump P1 changed by timer control
    18:01:42: Balancing the network:
              Trial  1: relative flow change = 0.993560
              Trial  2: relative flow change = 0.969795
              Trial  3: relative flow change = 0.919798
              Trial  4: relative flow change = 0.781236
              Trial  5: relative flow change = 0.483246
              Trial  6: relative flow change = 0.148035
              Trial  7: relative flow change = 0.012494
              Trial  8: relative flow change = 0.000094
    18:01:42: Balanced after 8 trials
    18:01:42: Reservoir Source is emptying
    18:01:42: Tank Tank1 is filling at 5.54 m
    18:01:42: Pump P1 changed from closed to open
   
    18:05:00: Balancing the network:
              Trial  1: relative flow change = 0.000088
    18:05:00: Balanced after 1 trials
   
    18:10:00: Balancing the network:
              Trial  1: relative flow change = 0.000133
    18:10:00: Balanced after 1 trials
   
    18:15:00: Balancing the network:
              Trial  1: relative flow change = 0.000133
    18:15:00: Balanced after 1 trials
   
    18:20:00: Balancing the network:
              Trial  1: relative flow change = 0.000133
    18:20:00: Balanced after 1 trials
   
    18:25:00: Balancing the network:
              Trial  1: relative flow change = 0.000133
    18:25:00: Balanced after 1 trials
   
    18:30:00: Balancing the network:
              Trial  1: relative flow change = 0.001602
              Trial  2: relative flow change = 0.000000
    18:30:00: Balanced after 2 trials
   
    18:35:00: Balancing the network:
              Trial  1: relative flow change = 0.000132
    18:35:00: Balanced after 1 trials
   
    18:40:00: Balancing the network:
              Trial  1: relative flow change = 0.000132
    18:40:00: Balanced after 1 trials
   
    18:45:00: Balancing the network:
              Trial  1: relative flow change = 0.000132
    18:45:00: Balanced after 1 trials
   
    18:47:31: Pump P1 changed by timer control
    18:47:31: Balancing the network:
              Trial  1: relative flow change = 5.716835
              Trial  2: relative flow change = 0.000007
    18:47:31: Balanced after 2 trials
    18:47:31: Reservoir Source is closed
    18:47:31: Tank Tank1 is emptying at 6.01 m
    18:47:31: Pump P1 changed from open to closed
   
    18:50:00: Balancing the network:
              Trial  1: relative flow change = 0.000000
    18:50:00: Balanced after 1 trials
   
    18:55:00: Balancing the network:
              Trial  1: relative flow change = 0.000000
    18:55:00: Balanced after 1 trials
   
    19:00:00: Balancing the network:
              Trial  1: relative flow change = 0.013745
              Trial  2: relative flow change = 0.000000
    19:00:00: Balanced after 2 trials
   
    19:05:00: Balancing the network:
              Trial  1: relative flow change = 0.000000
    19:05:00: Balanced after 1 trials
   
    19:10:00: Balancing the network:
              Trial  1: relative flow change = 0.000000
    19:10:00: Balanced after 1 trials
   
    19:15:00: Balancing the network:
              Trial  1: relative flow change = 0.000000
    19:15:00: Balanced after 1 trials
   
    19:20:00: Balancing the network:
              Trial  1: relative flow change = 0.000000
    19:20:00: Balanced after 1 trials
   
    19:25:00: Balancing the network:
              Trial  1: relative flow change = 0.000000
    19:25:00: Balanced after 1 trials
   
    19:30:00: Balancing the network:
              Trial  1: relative flow change = 0.017941
              Trial  2: relative flow change = 0.000000
    19:30:00: Balanced after 2 trials
   
    19:35:00: Balancing the network:
              Trial  1: relative flow change = 0.000000
    19:35:00: Balanced after 1 trials
   
    19:40:00: Balancing the network:
              Trial  1: relative flow change = 0.000000
    19:40:00: Balanced after 1 trials
   
    19:45:00: Balancing the network:
              Trial  1: relative flow change = 0.000000
    19:45:00: Balanced after 1 trials
   
    19:50:00: Balancing the network:
              Trial  1: relative flow change = 0.000000
    19:50:00: Balanced after 1 trials
   
    19:55:00: Balancing the network:
              Trial  1: relative flow change = 0.000000
    19:55:00: Balanced after 1 trials
   
    20:00:00: Balancing the network:
              Trial  1: relative flow change = 0.021026
              Trial  2: relative flow change = 0.000000
    20:00:00: Balanced after 2 trials
   
    20:05:00: Balancing the network:
              Trial  1: relative flow change = 0.000000
    20:05:00: Balanced after 1 trials
   
    20:10:00: Balancing the network:
              Trial  1: relative flow change = 0.000000
    20:10:00: Balanced after 1 trials
   
    20:15:00: Balancing the network:
              Trial  1: relative flow change = 0.000000
    20:15:00: Balanced after 1 trials
   
    20:20:00: Balancing the network:
              Trial  1: relative flow change = 0.000000
    20:20:00: Balanced after 1 trials
   
    20:25:00: Balancing the network:
              Trial  1: relative flow change = 0.000000
    20:25:00: Balanced after 1 trials
   
    20:30:00: Balancing the network:
              Trial  1: relative flow change = 0.022418
              Trial  2: relative flow change = 0.000000
    20:30:00: Balanced after 2 trials
   
    20:35:00: Balancing the network:
              Trial  1: relative flow change = 0.000000
    20:35:00: Balanced after 1 trials
   
    20:40:00: Balancing the network:
              Trial  1: relative flow change = 0.000000
    20:40:00: Balanced after 1 trials
   
    20:45:00: Balancing the network:
              Trial  1: relative flow change = 0.000000
    20:45:00: Balanced after 1 trials
   
    20:50:00: Balancing the network:
              Trial  1: relative flow change = 0.000000
    20:50:00: Balanced after 1 trials
   
    20:55:00: Balancing the network:
              Trial  1: relative flow change = 0.000000
    20:55:00: Balanced after 1 trials
   
    21:00:00: Balancing the network:
              Trial  1: relative flow change = 0.021535
              Trial  2: relative flow change = 0.000000
    21:00:00: Balanced after 2 trials
   
    21:05:00: Balancing the network:
              Trial  1: relative flow change = 0.000000
    21:05:00: Balanced after 1 trials
   
    21:10:00: Balancing the network:
              Trial  1: relative flow change = 0.000000
    21:10:00: Balanced after 1 trials
   
    21:15:00: Balancing the network:
              Trial  1: relative flow change = 0.000000
    21:15:00: Balanced after 1 trials
   
    21:20:00: Balancing the network:
              Trial  1: relative flow change = 0.000000
    21:20:00: Balanced after 1 trials
   
    21:25:00: Balancing the network:
              Trial  1: relative flow change = 0.000000
    21:25:00: Balanced after 1 trials
   
    21:30:00: Balancing the network:
              Trial  1: relative flow change = 0.017652
              Trial  2: relative flow change = 0.000000
    21:30:00: Balanced after 2 trials
   
    21:35:00: Balancing the network:
              Trial  1: relative flow change = 0.000000
    21:35:00: Balanced after 1 trials
   
    21:40:00: Balancing the network:
              Trial  1: relative flow change = 0.000000
    21:40:00: Balanced after 1 trials
   
    21:45:00: Balancing the network:
              Trial  1: relative flow change = 0.000000
    21:45:00: Balanced after 1 trials
   
    21:50:00: Balancing the network:
              Trial  1: relative flow change = 0.000000
    21:50:00: Balanced after 1 trials
   
    21:55:00: Balancing the network:
              Trial  1: relative flow change = 0.000000
    21:55:00: Balanced after 1 trials
   
    22:00:00: Balancing the network:
              Trial  1: relative flow change = 0.009885
              Trial  2: relative flow change = 0.000000
    22:00:00: Balanced after 2 trials
   
    22:05:00: Balancing the network:
              Trial  1: relative flow change = 0.000000
    22:05:00: Balanced after 1 trials
   
    22:10:00: Balancing the network:
              Trial  1: relative flow change = 0.000000
    22:10:00: Balanced after 1 trials
   
    22:11:48: Pump P1 changed by timer control
    22:11:48: Balancing the network:
              Trial  1: relative flow change = 0.993075
              Trial  2: relative flow change = 0.974132
              Trial  3: relative flow change = 0.934298
              Trial  4: relative flow change = 0.824597
              Trial  5: relative flow change = 0.569021
              Trial  6: relative flow change = 0.218873
              Trial  7: relative flow change = 0.028047
              Trial  8: relative flow change = 0.000462
    22:11:48: Balanced after 8 trials
    22:11:48: Reservoir Source is emptying
    22:11:48: Tank Tank1 is filling at 3.61 m
    22:11:48: Pump P1 changed from closed to open
   
    22:15:00: Balancing the network:
              Trial  1: relative flow change = 0.000079
    22:15:00: Balanced after 1 trials
   
    22:17:50: Pump P1 changed by timer control
    22:17:50: Balancing the network:
              Trial  1: relative flow change = 5.470346
              Trial  2: relative flow change = 0.000007
    22:17:50: Balanced after 2 trials
    22:17:50: Reservoir Source is closed
    22:17:50: Tank Tank1 is emptying at 3.67 m
    22:17:50: Pump P1 changed from open to closed
   
    22:20:00: Balancing the network:
              Trial  1: relative flow change = 0.000000
    22:20:00: Balanced after 1 trials
   
    22:25:00: Balancing the network:
              Trial  1: relative flow change = 0.000000
    22:25:00: Balanced after 1 trials
   
    22:30:00: Balancing the network:
              Trial  1: relative flow change = 0.020689
              Trial  2: relative flow change = 0.000000
    22:30:00: Balanced after 2 trials
   
    22:35:00: Balancing the network:
              Trial  1: relative flow change = 0.000000
    22:35:00: Balanced after 1 trials
   
    22:40:00: Balancing the network:
              Trial  1: relative flow change = 0.000000
    22:40:00: Balanced after 1 trials
   
    22:45:00: Balancing the network:
              Trial  1: relative flow change = 0.000000
    22:45:00: Balanced after 1 trials
   
    22:50:00: Balancing the network:
              Trial  1: relative flow change = 0.000000
    22:50:00: Balanced after 1 trials
   
    22:55:00: Balancing the network:
              Trial  1: relative flow change = 0.000000
    22:55:00: Balanced after 1 trials
   
    22:58:56: Pump P1 changed by timer control
    22:58:56: Balancing the network:
              Trial  1: relative flow change = 0.993397
              Trial  2: relative flow change = 0.975716
              Trial  3: relative flow change = 0.938447
              Trial  4: relative flow change = 0.835294
              Trial  5: relative flow change = 0.589813
              Trial  6: relative flow change = 0.237977
              Trial  7: relative flow change = 0.033233
              Trial  8: relative flow change = 0.000644
    22:58:56: Balanced after 8 trials
    22:58:56: Reservoir Source is emptying
    22:58:56: Tank Tank1 is filling at 3.19 m
    22:58:56: Pump P1 changed from closed to open
   
    23:00:00: Balancing the network:
              Trial  1: relative flow change = 0.007238
              Trial  2: relative flow change = 0.000002
    23:00:00: Balanced after 2 trials
   
    23:05:00: Balancing the network:
              Trial  1: relative flow change = 0.000132
    23:05:00: Balanced after 1 trials
   
    23:10:00: Balancing the network:
              Trial  1: relative flow change = 0.000132
    23:10:00: Balanced after 1 trials
   
    23:15:00: Balancing the network:
              Trial  1: relative flow change = 0.000132
    23:15:00: Balanced after 1 trials
   
    23:20:00: Balancing the network:
              Trial  1: relative flow change = 0.000132
    23:20:00: Balanced after 1 trials
   
    23:25:00: Balancing the network:
              Trial  1: relative flow change = 0.000132
    23:25:00: Balanced after 1 trials
   
    23:30:00: Balancing the network:
              Trial  1: relative flow change = 0.012173
              Trial  2: relative flow change = 0.000002
    23:30:00: Balanced after 2 trials
   
    23:34:44: Pump P1 changed by timer control
    23:34:44: Balancing the network:
              Trial  1: relative flow change = 6.274370
              Trial  2: relative flow change = 0.000008
    23:34:44: Balanced after 2 trials
    23:34:44: Reservoir Source is closed
    23:34:44: Tank Tank1 is emptying at 3.57 m
    23:34:44: Pump P1 changed from open to closed
   
    23:35:00: Balancing the network:
              Trial  1: relative flow change = 0.000000
    23:35:00: Balanced after 1 trials
   
    23:40:00: Balancing the network:
              Trial  1: relative flow change = 0.000000
    23:40:00: Balanced after 1 trials
   
    23:45:00: Balancing the network:
              Trial  1: relative flow change = 0.000000
    23:45:00: Balanced after 1 trials
   
    23:50:00: Balancing the network:
              Trial  1: relative flow change = 0.000000
    23:50:00: Balanced after 1 trials
   
    23:55:00: Balancing the network:
              Trial  1: relative flow change = 0.000000
    23:55:00: Balanced after 1 trials
   
    24:00:00: Balancing the network:
              Trial  1: relative flow change = 0.008266
              Trial  2: relative flow change = 0.000000
    24:00:00: Balanced after 2 trials
   
  Analysis ended Wed May 07 07:36:00 2025
