  Page 1                                    Mon Mar 10 13:56:40 2025

  ******************************************************************
  *                           E P A N E T                          *
  *                   Hydraulic and Water Quality                  *
  *                   Analysis for Pipe Networks                   *
  *                         Version 2.00.12                        *
  ******************************************************************
  
  Analysis begun Mon Mar 10 13:56:40 2025

   
  Hydraulic Status:
  -----------------------------------------------------------------------
     0:00:00: Pump P1 changed by timer control
     0:00:00: Balancing the network:
              Trial  1: relative flow change = 2.930009
              Trial  2: relative flow change = 0.000002
     0:00:00: Balanced after 2 trials
     0:00:00: Reservoir Source is closed
     0:00:00: Tank Tank1 is emptying at 4.00 m
     0:00:00: Pump P1 closed
   
     0:05:00: Balancing the network:
              Trial  1: relative flow change = 0.000000
     0:05:00: Balanced after 1 trials
   
     0:10:00: Balancing the network:
              Trial  1: relative flow change = 0.000000
     0:10:00: Balanced after 1 trials
   
     0:15:00: Balancing the network:
              Trial  1: relative flow change = 0.000000
     0:15:00: Balanced after 1 trials
   
     0:20:00: Balancing the network:
              Trial  1: relative flow change = 0.000000
     0:20:00: Balanced after 1 trials
   
     0:25:00: Balancing the network:
              Trial  1: relative flow change = 0.000000
     0:25:00: Balanced after 1 trials
   
     0:30:00: Balancing the network:
              Trial  1: relative flow change = 0.023722
              Trial  2: relative flow change = 0.000000
     0:30:00: Balanced after 2 trials
   
     0:35:00: Balancing the network:
              Trial  1: relative flow change = 0.000000
     0:35:00: Balanced after 1 trials
   
     0:40:00: Balancing the network:
              Trial  1: relative flow change = 0.000000
     0:40:00: Balanced after 1 trials
   
     0:45:00: Balancing the network:
              Trial  1: relative flow change = 0.000000
     0:45:00: Balanced after 1 trials
   
     0:50:00: Balancing the network:
              Trial  1: relative flow change = 0.000000
     0:50:00: Balanced after 1 trials
   
     0:55:00: Balancing the network:
              Trial  1: relative flow change = 0.000000
     0:55:00: Balanced after 1 trials
   
     1:00:00: Balancing the network:
              Trial  1: relative flow change = 0.035211
              Trial  2: relative flow change = 0.000000
     1:00:00: Balanced after 2 trials
   
     1:05:00: Balancing the network:
              Trial  1: relative flow change = 0.000000
     1:05:00: Balanced after 1 trials
   
     1:10:00: Balancing the network:
              Trial  1: relative flow change = 0.000000
     1:10:00: Balanced after 1 trials
   
     1:15:00: Balancing the network:
              Trial  1: relative flow change = 0.000000
     1:15:00: Balanced after 1 trials
   
     1:20:00: Balancing the network:
              Trial  1: relative flow change = 0.000000
     1:20:00: Balanced after 1 trials
   
     1:25:00: Balancing the network:
              Trial  1: relative flow change = 0.000000
     1:25:00: Balanced after 1 trials
   
     1:30:00: Balancing the network:
              Trial  1: relative flow change = 0.041630
              Trial  2: relative flow change = 0.000000
     1:30:00: Balanced after 2 trials
   
     1:35:00: Balancing the network:
              Trial  1: relative flow change = 0.000000
     1:35:00: Balanced after 1 trials
   
     1:40:00: Balancing the network:
              Trial  1: relative flow change = 0.000000
     1:40:00: Balanced after 1 trials
   
     1:45:00: Balancing the network:
              Trial  1: relative flow change = 0.000000
     1:45:00: Balanced after 1 trials
   
     1:50:00: Balancing the network:
              Trial  1: relative flow change = 0.000000
     1:50:00: Balanced after 1 trials
   
     1:55:00: Balancing the network:
              Trial  1: relative flow change = 0.000000
     1:55:00: Balanced after 1 trials
   
     2:00:00: Balancing the network:
              Trial  1: relative flow change = 0.043581
              Trial  2: relative flow change = 0.000000
     2:00:00: Balanced after 2 trials
   
     2:05:00: Balancing the network:
              Trial  1: relative flow change = 0.000000
     2:05:00: Balanced after 1 trials
   
     2:10:00: Balancing the network:
              Trial  1: relative flow change = 0.000000
     2:10:00: Balanced after 1 trials
   
     2:15:00: Balancing the network:
              Trial  1: relative flow change = 0.000000
     2:15:00: Balanced after 1 trials
   
     2:20:00: Balancing the network:
              Trial  1: relative flow change = 0.000000
     2:20:00: Balanced after 1 trials
   
     2:25:00: Balancing the network:
              Trial  1: relative flow change = 0.000000
     2:25:00: Balanced after 1 trials
   
     2:30:00: Balancing the network:
              Trial  1: relative flow change = 0.041640
              Trial  2: relative flow change = 0.000000
     2:30:00: Balanced after 2 trials
   
     2:35:00: Balancing the network:
              Trial  1: relative flow change = 0.000000
     2:35:00: Balanced after 1 trials
   
     2:40:00: Balancing the network:
              Trial  1: relative flow change = 0.000000
     2:40:00: Balanced after 1 trials
   
     2:45:00: Balancing the network:
              Trial  1: relative flow change = 0.000000
     2:45:00: Balanced after 1 trials
   
     2:50:00: Balancing the network:
              Trial  1: relative flow change = 0.000000
     2:50:00: Balanced after 1 trials
   
     2:55:00: Balancing the network:
              Trial  1: relative flow change = 0.000000
     2:55:00: Balanced after 1 trials
   
     3:00:00: Balancing the network:
              Trial  1: relative flow change = 0.036405
              Trial  2: relative flow change = 0.000000
     3:00:00: Balanced after 2 trials
   
     3:05:00: Balancing the network:
              Trial  1: relative flow change = 0.000000
     3:05:00: Balanced after 1 trials
   
     3:10:00: Balancing the network:
              Trial  1: relative flow change = 0.000000
     3:10:00: Balanced after 1 trials
   
     3:15:00: Balancing the network:
              Trial  1: relative flow change = 0.000000
     3:15:00: Balanced after 1 trials
   
     3:20:00: Balancing the network:
              Trial  1: relative flow change = 0.000000
     3:20:00: Balanced after 1 trials
   
     3:25:00: Balancing the network:
              Trial  1: relative flow change = 0.000000
     3:25:00: Balanced after 1 trials
   
     3:30:00: Balancing the network:
              Trial  1: relative flow change = 0.028671
              Trial  2: relative flow change = 0.000000
     3:30:00: Balanced after 2 trials
   
     3:35:00: Balancing the network:
              Trial  1: relative flow change = 0.000000
     3:35:00: Balanced after 1 trials
   
     3:40:00: Balancing the network:
              Trial  1: relative flow change = 0.000000
     3:40:00: Balanced after 1 trials
   
     3:45:00: Balancing the network:
              Trial  1: relative flow change = 0.000000
     3:45:00: Balanced after 1 trials
   
     3:50:00: Balancing the network:
              Trial  1: relative flow change = 0.000000
     3:50:00: Balanced after 1 trials
   
     3:55:00: Balancing the network:
              Trial  1: relative flow change = 0.000000
     3:55:00: Balanced after 1 trials
   
     4:00:00: Pump P1 changed by timer control
     4:00:00: Balancing the network:
              Trial  1: relative flow change = 0.996846
              Trial  2: relative flow change = 0.983223
              Trial  3: relative flow change = 0.953820
              Trial  4: relative flow change = 0.865091
              Trial  5: relative flow change = 0.634446
              Trial  6: relative flow change = 0.272117
              Trial  7: relative flow change = 0.041783
              Trial  8: relative flow change = 0.000967
     4:00:00: Balanced after 8 trials
     4:00:00: Reservoir Source is emptying
     4:00:00: Tank Tank1 is filling at 1.78 m
     4:00:00: Pump P1 changed from closed to open
   
     4:05:00: Balancing the network:
              Trial  1: relative flow change = 0.000177
     4:05:00: Balanced after 1 trials
   
     4:10:00: Balancing the network:
              Trial  1: relative flow change = 0.000176
     4:10:00: Balanced after 1 trials
   
     4:15:00: Balancing the network:
              Trial  1: relative flow change = 0.000176
     4:15:00: Balanced after 1 trials
   
     4:20:00: Balancing the network:
              Trial  1: relative flow change = 0.000176
     4:20:00: Balanced after 1 trials
   
     4:25:00: Balancing the network:
              Trial  1: relative flow change = 0.000176
     4:25:00: Balanced after 1 trials
   
     4:30:00: Balancing the network:
              Trial  1: relative flow change = 0.001187
              Trial  2: relative flow change = 0.000001
     4:30:00: Balanced after 2 trials
   
     4:35:00: Balancing the network:
              Trial  1: relative flow change = 0.000176
     4:35:00: Balanced after 1 trials
   
     4:40:00: Balancing the network:
              Trial  1: relative flow change = 0.000176
     4:40:00: Balanced after 1 trials
   
     4:45:00: Balancing the network:
              Trial  1: relative flow change = 0.000176
     4:45:00: Balanced after 1 trials
   
     4:50:00: Balancing the network:
              Trial  1: relative flow change = 0.000176
     4:50:00: Balanced after 1 trials
   
     4:55:00: Balancing the network:
              Trial  1: relative flow change = 0.000176
     4:55:00: Balanced after 1 trials
   
     5:00:00: Pump P1 changed by timer control
     5:00:00: Pump P1 changed by timer control
     5:00:00: Balancing the network:
              Trial  1: relative flow change = 0.001294
              Trial  2: relative flow change = 0.000001
     5:00:00: Balanced after 2 trials
   
     5:05:00: Balancing the network:
              Trial  1: relative flow change = 0.000175
     5:05:00: Balanced after 1 trials
   
     5:10:00: Balancing the network:
              Trial  1: relative flow change = 0.000175
     5:10:00: Balanced after 1 trials
   
     5:15:00: Balancing the network:
              Trial  1: relative flow change = 0.000175
     5:15:00: Balanced after 1 trials
   
     5:20:00: Balancing the network:
              Trial  1: relative flow change = 0.000175
     5:20:00: Balanced after 1 trials
   
     5:25:00: Balancing the network:
              Trial  1: relative flow change = 0.000175
     5:25:00: Balanced after 1 trials
   
     5:30:00: Balancing the network:
              Trial  1: relative flow change = 0.002428
              Trial  2: relative flow change = 0.000001
     5:30:00: Balanced after 2 trials
   
     5:35:00: Balancing the network:
              Trial  1: relative flow change = 0.000173
     5:35:00: Balanced after 1 trials
   
     5:40:00: Balancing the network:
              Trial  1: relative flow change = 0.000173
     5:40:00: Balanced after 1 trials
   
     5:45:00: Balancing the network:
              Trial  1: relative flow change = 0.000173
     5:45:00: Balanced after 1 trials
   
     5:50:00: Balancing the network:
              Trial  1: relative flow change = 0.000173
     5:50:00: Balanced after 1 trials
   
     5:55:00: Balancing the network:
              Trial  1: relative flow change = 0.000173
     5:55:00: Balanced after 1 trials
   
     6:00:00: Pump P1 changed by timer control
     6:00:00: Pump P1 changed by timer control
     6:00:00: Balancing the network:
              Trial  1: relative flow change = 0.003416
              Trial  2: relative flow change = 0.000001
     6:00:00: Balanced after 2 trials
   
     6:05:00: Balancing the network:
              Trial  1: relative flow change = 0.000170
     6:05:00: Balanced after 1 trials
   
     6:10:00: Balancing the network:
              Trial  1: relative flow change = 0.000170
     6:10:00: Balanced after 1 trials
   
     6:15:00: Balancing the network:
              Trial  1: relative flow change = 0.000170
     6:15:00: Balanced after 1 trials
   
     6:20:00: Balancing the network:
              Trial  1: relative flow change = 0.000170
     6:20:00: Balanced after 1 trials
   
     6:25:00: Balancing the network:
              Trial  1: relative flow change = 0.000170
     6:25:00: Balanced after 1 trials
   
     6:30:00: Balancing the network:
              Trial  1: relative flow change = 0.004221
              Trial  2: relative flow change = 0.000001
     6:30:00: Balanced after 2 trials
   
     6:35:00: Balancing the network:
              Trial  1: relative flow change = 0.000166
     6:35:00: Balanced after 1 trials
   
     6:40:00: Balancing the network:
              Trial  1: relative flow change = 0.000166
     6:40:00: Balanced after 1 trials
   
     6:45:00: Balancing the network:
              Trial  1: relative flow change = 0.000166
     6:45:00: Balanced after 1 trials
   
     6:50:00: Balancing the network:
              Trial  1: relative flow change = 0.000166
     6:50:00: Balanced after 1 trials
   
     6:55:00: Balancing the network:
              Trial  1: relative flow change = 0.000166
     6:55:00: Balanced after 1 trials
   
     7:00:00: Balancing the network:
              Trial  1: relative flow change = 0.004827
              Trial  2: relative flow change = 0.000001
     7:00:00: Balanced after 2 trials
   
     7:05:00: Balancing the network:
              Trial  1: relative flow change = 0.000161
     7:05:00: Balanced after 1 trials
   
     7:10:00: Balancing the network:
              Trial  1: relative flow change = 0.000161
     7:10:00: Balanced after 1 trials
   
     7:15:00: Balancing the network:
              Trial  1: relative flow change = 0.000161
     7:15:00: Balanced after 1 trials
   
     7:20:00: Balancing the network:
              Trial  1: relative flow change = 0.000161
     7:20:00: Balanced after 1 trials
   
     7:25:00: Balancing the network:
              Trial  1: relative flow change = 0.000161
     7:25:00: Balanced after 1 trials
   
     7:30:00: Balancing the network:
              Trial  1: relative flow change = 0.005226
              Trial  2: relative flow change = 0.000001
     7:30:00: Balanced after 2 trials
   
     7:35:00: Balancing the network:
              Trial  1: relative flow change = 0.000156
     7:35:00: Balanced after 1 trials
   
     7:40:00: Balancing the network:
              Trial  1: relative flow change = 0.000156
     7:40:00: Balanced after 1 trials
   
     7:45:00: Balancing the network:
              Trial  1: relative flow change = 0.000156
     7:45:00: Balanced after 1 trials
   
     7:50:00: Balancing the network:
              Trial  1: relative flow change = 0.000156
     7:50:00: Balanced after 1 trials
   
     7:55:00: Balancing the network:
              Trial  1: relative flow change = 0.000156
     7:55:00: Balanced after 1 trials
   
     8:00:00: Balancing the network:
              Trial  1: relative flow change = 0.005413
              Trial  2: relative flow change = 0.000001
     8:00:00: Balanced after 2 trials
   
     8:05:00: Balancing the network:
              Trial  1: relative flow change = 0.000151
     8:05:00: Balanced after 1 trials
   
     8:10:00: Balancing the network:
              Trial  1: relative flow change = 0.000151
     8:10:00: Balanced after 1 trials
   
     8:15:00: Balancing the network:
              Trial  1: relative flow change = 0.000151
     8:15:00: Balanced after 1 trials
   
     8:20:00: Balancing the network:
              Trial  1: relative flow change = 0.000151
     8:20:00: Balanced after 1 trials
   
     8:25:00: Balancing the network:
              Trial  1: relative flow change = 0.000151
     8:25:00: Balanced after 1 trials
   
     8:30:00: Balancing the network:
              Trial  1: relative flow change = 0.005402
              Trial  2: relative flow change = 0.000001
     8:30:00: Balanced after 2 trials
   
     8:35:00: Balancing the network:
              Trial  1: relative flow change = 0.000145
     8:35:00: Balanced after 1 trials
   
     8:40:00: Balancing the network:
              Trial  1: relative flow change = 0.000145
     8:40:00: Balanced after 1 trials
   
     8:45:00: Balancing the network:
              Trial  1: relative flow change = 0.000145
     8:45:00: Balanced after 1 trials
   
     8:50:00: Balancing the network:
              Trial  1: relative flow change = 0.000145
     8:50:00: Balanced after 1 trials
   
     8:55:00: Balancing the network:
              Trial  1: relative flow change = 0.000145
     8:55:00: Balanced after 1 trials
   
     9:00:00: Balancing the network:
              Trial  1: relative flow change = 0.005203
              Trial  2: relative flow change = 0.000001
     9:00:00: Balanced after 2 trials
   
     9:05:00: Balancing the network:
              Trial  1: relative flow change = 0.000140
     9:05:00: Balanced after 1 trials
   
     9:10:00: Balancing the network:
              Trial  1: relative flow change = 0.000140
     9:10:00: Balanced after 1 trials
   
     9:15:00: Balancing the network:
              Trial  1: relative flow change = 0.000140
     9:15:00: Balanced after 1 trials
   
     9:20:00: Balancing the network:
              Trial  1: relative flow change = 0.000140
     9:20:00: Balanced after 1 trials
   
     9:25:00: Balancing the network:
              Trial  1: relative flow change = 0.000140
     9:25:00: Balanced after 1 trials
   
     9:30:00: Balancing the network:
              Trial  1: relative flow change = 0.004844
              Trial  2: relative flow change = 0.000001
     9:30:00: Balanced after 2 trials
   
     9:35:00: Balancing the network:
              Trial  1: relative flow change = 0.000136
     9:35:00: Balanced after 1 trials
   
     9:40:00: Balancing the network:
              Trial  1: relative flow change = 0.000136
     9:40:00: Balanced after 1 trials
   
     9:45:00: Balancing the network:
              Trial  1: relative flow change = 0.000136
     9:45:00: Balanced after 1 trials
   
     9:50:00: Balancing the network:
              Trial  1: relative flow change = 0.000136
     9:50:00: Balanced after 1 trials
   
     9:55:00: Balancing the network:
              Trial  1: relative flow change = 0.000136
     9:55:00: Balanced after 1 trials
   
    10:00:00: Balancing the network:
              Trial  1: relative flow change = 0.004346
              Trial  2: relative flow change = 0.000001
    10:00:00: Balanced after 2 trials
   
    10:05:00: Balancing the network:
              Trial  1: relative flow change = 0.000131
    10:05:00: Balanced after 1 trials
   
    10:10:00: Balancing the network:
              Trial  1: relative flow change = 0.000131
    10:10:00: Balanced after 1 trials
   
    10:15:00: Balancing the network:
              Trial  1: relative flow change = 0.000131
    10:15:00: Balanced after 1 trials
   
    10:20:00: Balancing the network:
              Trial  1: relative flow change = 0.000131
    10:20:00: Balanced after 1 trials
   
    10:25:00: Balancing the network:
              Trial  1: relative flow change = 0.000131
    10:25:00: Balanced after 1 trials
   
    10:30:00: Balancing the network:
              Trial  1: relative flow change = 0.003737
              Trial  2: relative flow change = 0.000001
    10:30:00: Balanced after 2 trials
   
    10:35:00: Balancing the network:
              Trial  1: relative flow change = 0.000128
    10:35:00: Balanced after 1 trials
   
    10:40:00: Balancing the network:
              Trial  1: relative flow change = 0.000128
    10:40:00: Balanced after 1 trials
   
    10:45:00: Balancing the network:
              Trial  1: relative flow change = 0.000128
    10:45:00: Balanced after 1 trials
   
    10:50:00: Balancing the network:
              Trial  1: relative flow change = 0.000128
    10:50:00: Balanced after 1 trials
   
    10:55:00: Balancing the network:
              Trial  1: relative flow change = 0.000128
    10:55:00: Balanced after 1 trials
   
    11:00:00: Balancing the network:
              Trial  1: relative flow change = 0.003046
              Trial  2: relative flow change = 0.000001
    11:00:00: Balanced after 2 trials
   
    11:05:00: Balancing the network:
              Trial  1: relative flow change = 0.000125
    11:05:00: Balanced after 1 trials
   
    11:10:00: Balancing the network:
              Trial  1: relative flow change = 0.000125
    11:10:00: Balanced after 1 trials
   
    11:15:00: Balancing the network:
              Trial  1: relative flow change = 0.000125
    11:15:00: Balanced after 1 trials
   
    11:20:00: Balancing the network:
              Trial  1: relative flow change = 0.000125
    11:20:00: Balanced after 1 trials
   
    11:25:00: Balancing the network:
              Trial  1: relative flow change = 0.000125
    11:25:00: Balanced after 1 trials
   
    11:30:00: Balancing the network:
              Trial  1: relative flow change = 0.002308
              Trial  2: relative flow change = 0.000001
    11:30:00: Balanced after 2 trials
   
    11:35:00: Balancing the network:
              Trial  1: relative flow change = 0.000123
    11:35:00: Balanced after 1 trials
   
    11:40:00: Balancing the network:
              Trial  1: relative flow change = 0.000123
    11:40:00: Balanced after 1 trials
   
    11:45:00: Balancing the network:
              Trial  1: relative flow change = 0.000123
    11:45:00: Balanced after 1 trials
   
    11:50:00: Balancing the network:
              Trial  1: relative flow change = 0.000123
    11:50:00: Balanced after 1 trials
   
    11:55:00: Balancing the network:
              Trial  1: relative flow change = 0.000123
    11:55:00: Balanced after 1 trials
   
    12:00:00: Pump P1 changed by timer control
    12:00:00: Balancing the network:
              Trial  1: relative flow change = 5.348005
              Trial  2: relative flow change = 0.000007
    12:00:00: Balanced after 2 trials
    12:00:00: Reservoir Source is closed
    12:00:00: Tank Tank1 is emptying at 7.41 m
    12:00:00: Pump P1 changed from open to closed
   
    12:05:00: Balancing the network:
              Trial  1: relative flow change = 0.000000
    12:05:00: Balanced after 1 trials
   
    12:10:00: Balancing the network:
              Trial  1: relative flow change = 0.000000
    12:10:00: Balanced after 1 trials
   
    12:15:00: Balancing the network:
              Trial  1: relative flow change = 0.000000
    12:15:00: Balanced after 1 trials
   
    12:20:00: Balancing the network:
              Trial  1: relative flow change = 0.000000
    12:20:00: Balanced after 1 trials
   
    12:25:00: Balancing the network:
              Trial  1: relative flow change = 0.000000
    12:25:00: Balanced after 1 trials
   
    12:30:00: Balancing the network:
              Trial  1: relative flow change = 0.004394
              Trial  2: relative flow change = 0.000000
    12:30:00: Balanced after 2 trials
   
    12:35:00: Balancing the network:
              Trial  1: relative flow change = 0.000000
    12:35:00: Balanced after 1 trials
   
    12:40:00: Balancing the network:
              Trial  1: relative flow change = 0.000000
    12:40:00: Balanced after 1 trials
   
    12:45:00: Balancing the network:
              Trial  1: relative flow change = 0.000000
    12:45:00: Balanced after 1 trials
   
    12:50:00: Balancing the network:
              Trial  1: relative flow change = 0.000000
    12:50:00: Balanced after 1 trials
   
    12:55:00: Balancing the network:
              Trial  1: relative flow change = 0.000000
    12:55:00: Balanced after 1 trials
   
    13:00:00: Pump P1 changed by timer control
    13:00:00: Balancing the network:
              Trial  1: relative flow change = 0.992540
              Trial  2: relative flow change = 0.967759
              Trial  3: relative flow change = 0.916045
              Trial  4: relative flow change = 0.775411
              Trial  5: relative flow change = 0.477615
              Trial  6: relative flow change = 0.145836
              Trial  7: relative flow change = 0.012268
              Trial  8: relative flow change = 0.000091
    13:00:00: Balanced after 8 trials
    13:00:00: Reservoir Source is emptying
    13:00:00: Tank Tank1 is filling at 6.68 m
    13:00:00: Pump P1 changed from closed to open
   
    13:05:00: Balancing the network:
              Trial  1: relative flow change = 0.000121
    13:05:00: Balanced after 1 trials
   
    13:10:00: Balancing the network:
              Trial  1: relative flow change = 0.000121
    13:10:00: Balanced after 1 trials
   
    13:15:00: Balancing the network:
              Trial  1: relative flow change = 0.000121
    13:15:00: Balanced after 1 trials
   
    13:20:00: Balancing the network:
              Trial  1: relative flow change = 0.000121
    13:20:00: Balanced after 1 trials
   
    13:25:00: Balancing the network:
              Trial  1: relative flow change = 0.000121
    13:25:00: Balanced after 1 trials
   
    13:30:00: Balancing the network:
              Trial  1: relative flow change = 0.001152
              Trial  2: relative flow change = 0.000000
    13:30:00: Balanced after 2 trials
   
    13:35:00: Balancing the network:
              Trial  1: relative flow change = 0.000121
    13:35:00: Balanced after 1 trials
   
    13:40:00: Balancing the network:
              Trial  1: relative flow change = 0.000121
    13:40:00: Balanced after 1 trials
   
    13:45:00: Balancing the network:
              Trial  1: relative flow change = 0.000121
    13:45:00: Balanced after 1 trials
   
    13:50:00: Balancing the network:
              Trial  1: relative flow change = 0.000121
    13:50:00: Balanced after 1 trials
   
    13:55:00: Balancing the network:
              Trial  1: relative flow change = 0.000121
    13:55:00: Balanced after 1 trials
   
    14:00:00: Pump P1 changed by timer control
    14:00:00: Pump P1 changed by timer control
    14:00:00: Balancing the network:
              Trial  1: relative flow change = 0.001541
              Trial  2: relative flow change = 0.000000
    14:00:00: Balanced after 2 trials
   
    14:05:00: Balancing the network:
              Trial  1: relative flow change = 0.000123
    14:05:00: Balanced after 1 trials
   
    14:10:00: Balancing the network:
              Trial  1: relative flow change = 0.000123
    14:10:00: Balanced after 1 trials
   
    14:15:00: Balancing the network:
              Trial  1: relative flow change = 0.000123
    14:15:00: Balanced after 1 trials
   
    14:20:00: Balancing the network:
              Trial  1: relative flow change = 0.000123
    14:20:00: Balanced after 1 trials
   
    14:25:00: Balancing the network:
              Trial  1: relative flow change = 0.000123
    14:25:00: Balanced after 1 trials
   
    14:30:00: Balancing the network:
              Trial  1: relative flow change = 0.001802
              Trial  2: relative flow change = 0.000000
    14:30:00: Balanced after 2 trials
   
    14:35:00: Balancing the network:
              Trial  1: relative flow change = 0.000124
    14:35:00: Balanced after 1 trials
   
    14:40:00: Balancing the network:
              Trial  1: relative flow change = 0.000124
    14:40:00: Balanced after 1 trials
   
    14:45:00: Balancing the network:
              Trial  1: relative flow change = 0.000124
    14:45:00: Balanced after 1 trials
   
    14:50:00: Balancing the network:
              Trial  1: relative flow change = 0.000124
    14:50:00: Balanced after 1 trials
   
    14:55:00: Balancing the network:
              Trial  1: relative flow change = 0.000124
    14:55:00: Balanced after 1 trials
   
    15:00:00: Balancing the network:
              Trial  1: relative flow change = 0.001975
              Trial  2: relative flow change = 0.000000
    15:00:00: Balanced after 2 trials
   
    15:05:00: Balancing the network:
              Trial  1: relative flow change = 0.000126
    15:05:00: Balanced after 1 trials
   
    15:10:00: Balancing the network:
              Trial  1: relative flow change = 0.000126
    15:10:00: Balanced after 1 trials
   
    15:15:00: Balancing the network:
              Trial  1: relative flow change = 0.000126
    15:15:00: Balanced after 1 trials
   
    15:20:00: Balancing the network:
              Trial  1: relative flow change = 0.000126
    15:20:00: Balanced after 1 trials
   
    15:25:00: Balancing the network:
              Trial  1: relative flow change = 0.000126
    15:25:00: Balanced after 1 trials
   
    15:30:00: Balancing the network:
              Trial  1: relative flow change = 0.001988
              Trial  2: relative flow change = 0.000000
    15:30:00: Balanced after 2 trials
   
    15:35:00: Balancing the network:
              Trial  1: relative flow change = 0.000128
    15:35:00: Balanced after 1 trials
   
    15:40:00: Balancing the network:
              Trial  1: relative flow change = 0.000128
    15:40:00: Balanced after 1 trials
   
    15:45:00: Balancing the network:
              Trial  1: relative flow change = 0.000128
    15:45:00: Balanced after 1 trials
   
    15:50:00: Balancing the network:
              Trial  1: relative flow change = 0.000128
    15:50:00: Balanced after 1 trials
   
    15:55:00: Balancing the network:
              Trial  1: relative flow change = 0.000128
    15:55:00: Balanced after 1 trials
   
    16:00:00: Balancing the network:
              Trial  1: relative flow change = 0.001837
              Trial  2: relative flow change = 0.000000
    16:00:00: Balanced after 2 trials
   
    16:05:00: Balancing the network:
              Trial  1: relative flow change = 0.000130
    16:05:00: Balanced after 1 trials
   
    16:10:00: Balancing the network:
              Trial  1: relative flow change = 0.000130
    16:10:00: Balanced after 1 trials
   
    16:15:00: Balancing the network:
              Trial  1: relative flow change = 0.000130
    16:15:00: Balanced after 1 trials
   
    16:20:00: Balancing the network:
              Trial  1: relative flow change = 0.000130
    16:20:00: Balanced after 1 trials
   
    16:25:00: Balancing the network:
              Trial  1: relative flow change = 0.000130
    16:25:00: Balanced after 1 trials
   
    16:30:00: Balancing the network:
              Trial  1: relative flow change = 0.001628
              Trial  2: relative flow change = 0.000000
    16:30:00: Balanced after 2 trials
   
    16:35:00: Balancing the network:
              Trial  1: relative flow change = 0.000131
    16:35:00: Balanced after 1 trials
   
    16:40:00: Balancing the network:
              Trial  1: relative flow change = 0.000131
    16:40:00: Balanced after 1 trials
   
    16:45:00: Balancing the network:
              Trial  1: relative flow change = 0.000131
    16:45:00: Balanced after 1 trials
   
    16:50:00: Balancing the network:
              Trial  1: relative flow change = 0.000131
    16:50:00: Balanced after 1 trials
   
    16:55:00: Balancing the network:
              Trial  1: relative flow change = 0.000131
    16:55:00: Balanced after 1 trials
   
    17:00:00: Balancing the network:
              Trial  1: relative flow change = 0.001294
              Trial  2: relative flow change = 0.000000
    17:00:00: Balanced after 2 trials
   
    17:05:00: Balancing the network:
              Trial  1: relative flow change = 0.000132
    17:05:00: Balanced after 1 trials
   
    17:10:00: Balancing the network:
              Trial  1: relative flow change = 0.000132
    17:10:00: Balanced after 1 trials
   
    17:15:00: Balancing the network:
              Trial  1: relative flow change = 0.000132
    17:15:00: Balanced after 1 trials
   
    17:20:00: Balancing the network:
              Trial  1: relative flow change = 0.000132
    17:20:00: Balanced after 1 trials
   
    17:25:00: Balancing the network:
              Trial  1: relative flow change = 0.000132
    17:25:00: Balanced after 1 trials
   
    17:30:00: Balancing the network:
              Trial  1: relative flow change = 0.000836
    17:30:00: Balanced after 1 trials
   
    17:35:00: Balancing the network:
              Trial  1: relative flow change = 0.000133
    17:35:00: Balanced after 1 trials
   
    17:40:00: Balancing the network:
              Trial  1: relative flow change = 0.000133
    17:40:00: Balanced after 1 trials
   
    17:45:00: Balancing the network:
              Trial  1: relative flow change = 0.000133
    17:45:00: Balanced after 1 trials
   
    17:50:00: Balancing the network:
              Trial  1: relative flow change = 0.000133
    17:50:00: Balanced after 1 trials
   
    17:55:00: Balancing the network:
              Trial  1: relative flow change = 0.000133
    17:55:00: Balanced after 1 trials
   
    18:00:00: Balancing the network:
              Trial  1: relative flow change = 0.000784
    18:00:00: Balanced after 1 trials
   
    18:05:00: Balancing the network:
              Trial  1: relative flow change = 0.000133
    18:05:00: Balanced after 1 trials
   
    18:10:00: Balancing the network:
              Trial  1: relative flow change = 0.000133
    18:10:00: Balanced after 1 trials
   
    18:15:00: Balancing the network:
              Trial  1: relative flow change = 0.000133
    18:15:00: Balanced after 1 trials
   
    18:20:00: Balancing the network:
              Trial  1: relative flow change = 0.000133
    18:20:00: Balanced after 1 trials
   
    18:25:00: Balancing the network:
              Trial  1: relative flow change = 0.000133
    18:25:00: Balanced after 1 trials
   
    18:30:00: Balancing the network:
              Trial  1: relative flow change = 0.001618
              Trial  2: relative flow change = 0.000000
    18:30:00: Balanced after 2 trials
   
    18:35:00: Balancing the network:
              Trial  1: relative flow change = 0.000132
    18:35:00: Balanced after 1 trials
   
    18:40:00: Balancing the network:
              Trial  1: relative flow change = 0.000132
    18:40:00: Balanced after 1 trials
   
    18:45:00: Balancing the network:
              Trial  1: relative flow change = 0.000132
    18:45:00: Balanced after 1 trials
   
    18:50:00: Balancing the network:
              Trial  1: relative flow change = 0.000132
    18:50:00: Balanced after 1 trials
   
    18:55:00: Balancing the network:
              Trial  1: relative flow change = 0.000132
    18:55:00: Balanced after 1 trials
   
    19:00:00: Pump P1 changed by timer control
    19:00:00: Balancing the network:
              Trial  1: relative flow change = 5.620097
              Trial  2: relative flow change = 0.000007
    19:00:00: Balanced after 2 trials
    19:00:00: Reservoir Source is closed
    19:00:00: Tank Tank1 is emptying at 10.23 m
    19:00:00: Pump P1 changed from open to closed
   
    19:05:00: Balancing the network:
              Trial  1: relative flow change = 0.000000
    19:05:00: Balanced after 1 trials
   
    19:10:00: Balancing the network:
              Trial  1: relative flow change = 0.000000
    19:10:00: Balanced after 1 trials
   
    19:15:00: Balancing the network:
              Trial  1: relative flow change = 0.000000
    19:15:00: Balanced after 1 trials
   
    19:20:00: Balancing the network:
              Trial  1: relative flow change = 0.000000
    19:20:00: Balanced after 1 trials
   
    19:25:00: Balancing the network:
              Trial  1: relative flow change = 0.000000
    19:25:00: Balanced after 1 trials
   
    19:30:00: Balancing the network:
              Trial  1: relative flow change = 0.017941
              Trial  2: relative flow change = 0.000000
    19:30:00: Balanced after 2 trials
   
    19:35:00: Balancing the network:
              Trial  1: relative flow change = 0.000000
    19:35:00: Balanced after 1 trials
   
    19:40:00: Balancing the network:
              Trial  1: relative flow change = 0.000000
    19:40:00: Balanced after 1 trials
   
    19:45:00: Balancing the network:
              Trial  1: relative flow change = 0.000000
    19:45:00: Balanced after 1 trials
   
    19:50:00: Balancing the network:
              Trial  1: relative flow change = 0.000000
    19:50:00: Balanced after 1 trials
   
    19:55:00: Balancing the network:
              Trial  1: relative flow change = 0.000000
    19:55:00: Balanced after 1 trials
   
    20:00:00: Balancing the network:
              Trial  1: relative flow change = 0.021026
              Trial  2: relative flow change = 0.000000
    20:00:00: Balanced after 2 trials
   
    20:05:00: Balancing the network:
              Trial  1: relative flow change = 0.000000
    20:05:00: Balanced after 1 trials
   
    20:10:00: Balancing the network:
              Trial  1: relative flow change = 0.000000
    20:10:00: Balanced after 1 trials
   
    20:15:00: Balancing the network:
              Trial  1: relative flow change = 0.000000
    20:15:00: Balanced after 1 trials
   
    20:20:00: Balancing the network:
              Trial  1: relative flow change = 0.000000
    20:20:00: Balanced after 1 trials
   
    20:25:00: Balancing the network:
              Trial  1: relative flow change = 0.000000
    20:25:00: Balanced after 1 trials
   
    20:30:00: Balancing the network:
              Trial  1: relative flow change = 0.022418
              Trial  2: relative flow change = 0.000000
    20:30:00: Balanced after 2 trials
   
    20:35:00: Balancing the network:
              Trial  1: relative flow change = 0.000000
    20:35:00: Balanced after 1 trials
   
    20:40:00: Balancing the network:
              Trial  1: relative flow change = 0.000000
    20:40:00: Balanced after 1 trials
   
    20:45:00: Balancing the network:
              Trial  1: relative flow change = 0.000000
    20:45:00: Balanced after 1 trials
   
    20:50:00: Balancing the network:
              Trial  1: relative flow change = 0.000000
    20:50:00: Balanced after 1 trials
   
    20:55:00: Balancing the network:
              Trial  1: relative flow change = 0.000000
    20:55:00: Balanced after 1 trials
   
    21:00:00: Balancing the network:
              Trial  1: relative flow change = 0.021535
              Trial  2: relative flow change = 0.000000
    21:00:00: Balanced after 2 trials
   
    21:05:00: Balancing the network:
              Trial  1: relative flow change = 0.000000
    21:05:00: Balanced after 1 trials
   
    21:10:00: Balancing the network:
              Trial  1: relative flow change = 0.000000
    21:10:00: Balanced after 1 trials
   
    21:15:00: Balancing the network:
              Trial  1: relative flow change = 0.000000
    21:15:00: Balanced after 1 trials
   
    21:20:00: Balancing the network:
              Trial  1: relative flow change = 0.000000
    21:20:00: Balanced after 1 trials
   
    21:25:00: Balancing the network:
              Trial  1: relative flow change = 0.000000
    21:25:00: Balanced after 1 trials
   
    21:30:00: Balancing the network:
              Trial  1: relative flow change = 0.017652
              Trial  2: relative flow change = 0.000000
    21:30:00: Balanced after 2 trials
   
    21:35:00: Balancing the network:
              Trial  1: relative flow change = 0.000000
    21:35:00: Balanced after 1 trials
   
    21:40:00: Balancing the network:
              Trial  1: relative flow change = 0.000000
    21:40:00: Balanced after 1 trials
   
    21:45:00: Balancing the network:
              Trial  1: relative flow change = 0.000000
    21:45:00: Balanced after 1 trials
   
    21:50:00: Balancing the network:
              Trial  1: relative flow change = 0.000000
    21:50:00: Balanced after 1 trials
   
    21:55:00: Balancing the network:
              Trial  1: relative flow change = 0.000000
    21:55:00: Balanced after 1 trials
   
    22:00:00: Balancing the network:
              Trial  1: relative flow change = 0.009885
              Trial  2: relative flow change = 0.000000
    22:00:00: Balanced after 2 trials
   
    22:05:00: Balancing the network:
              Trial  1: relative flow change = 0.000000
    22:05:00: Balanced after 1 trials
   
    22:10:00: Balancing the network:
              Trial  1: relative flow change = 0.000000
    22:10:00: Balanced after 1 trials
   
    22:15:00: Balancing the network:
              Trial  1: relative flow change = 0.000000
    22:15:00: Balanced after 1 trials
   
    22:20:00: Balancing the network:
              Trial  1: relative flow change = 0.000000
    22:20:00: Balanced after 1 trials
   
    22:25:00: Balancing the network:
              Trial  1: relative flow change = 0.000000
    22:25:00: Balanced after 1 trials
   
    22:30:00: Balancing the network:
              Trial  1: relative flow change = 0.020689
              Trial  2: relative flow change = 0.000000
    22:30:00: Balanced after 2 trials
   
    22:35:00: Balancing the network:
              Trial  1: relative flow change = 0.000000
    22:35:00: Balanced after 1 trials
   
    22:40:00: Balancing the network:
              Trial  1: relative flow change = 0.000000
    22:40:00: Balanced after 1 trials
   
    22:45:00: Balancing the network:
              Trial  1: relative flow change = 0.000000
    22:45:00: Balanced after 1 trials
   
    22:50:00: Balancing the network:
              Trial  1: relative flow change = 0.000000
    22:50:00: Balanced after 1 trials
   
    22:55:00: Balancing the network:
              Trial  1: relative flow change = 0.000000
    22:55:00: Balanced after 1 trials
   
    23:00:00: Balancing the network:
              Trial  1: relative flow change = 0.043870
              Trial  2: relative flow change = 0.000000
    23:00:00: Balanced after 2 trials
   
    23:05:00: Balancing the network:
              Trial  1: relative flow change = 0.000000
    23:05:00: Balanced after 1 trials
   
    23:10:00: Balancing the network:
              Trial  1: relative flow change = 0.000000
    23:10:00: Balanced after 1 trials
   
    23:15:00: Balancing the network:
              Trial  1: relative flow change = 0.000000
    23:15:00: Balanced after 1 trials
   
    23:20:00: Balancing the network:
              Trial  1: relative flow change = 0.000000
    23:20:00: Balanced after 1 trials
   
    23:25:00: Balancing the network:
              Trial  1: relative flow change = 0.000000
    23:25:00: Balanced after 1 trials
   
    23:30:00: Balancing the network:
              Trial  1: relative flow change = 0.080189
              Trial  2: relative flow change = 0.000000
    23:30:00: Balanced after 2 trials
   
    23:35:00: Balancing the network:
              Trial  1: relative flow change = 0.000000
    23:35:00: Balanced after 1 trials
   
    23:40:00: Balancing the network:
              Trial  1: relative flow change = 0.000000
    23:40:00: Balanced after 1 trials
   
    23:45:00: Balancing the network:
              Trial  1: relative flow change = 0.000000
    23:45:00: Balanced after 1 trials
   
    23:50:00: Balancing the network:
              Trial  1: relative flow change = 0.000000
    23:50:00: Balanced after 1 trials
   
    23:55:00: Balancing the network:
              Trial  1: relative flow change = 0.000000
    23:55:00: Balanced after 1 trials
   
    24:00:00: Balancing the network:
              Trial  1: relative flow change = 0.008266
              Trial  2: relative flow change = 0.000000
    24:00:00: Balanced after 2 trials
   
  Analysis ended Mon Mar 10 13:56:40 2025
