  Page 1                                    Thu May 15 02:59:19 2025

  ******************************************************************
  *                           E P A N E T                          *
  *                   Hydraulic and Water Quality                  *
  *                   Analysis for Pipe Networks                   *
  *                         Version 2.00.12                        *
  ******************************************************************
  
  Analysis begun Thu May 15 02:59:19 2025

   
  Hydraulic Status:
  -----------------------------------------------------------------------