  Page 1                                    Tue Apr 08 11:26:14 2025

  ******************************************************************
  *                           E P A N E T                          *
  *                   Hydraulic and Water Quality                  *
  *                   Analysis for Pipe Networks                   *
  *                         Version 2.00.12                        *
  ******************************************************************
  
  Analysis begun Tue Apr 08 11:26:14 2025

   
  Hydraulic Status:
  -----------------------------------------------------------------------
     0:00:00: Pump P1 changed by timer control
     0:00:00: Balancing the network:
              Trial  1: relative flow change = 2.930009
              Trial  2: relative flow change = 0.000002
     0:00:00: Balanced after 2 trials
     0:00:00: Reservoir Source is closed
     0:00:00: Tank Tank1 is emptying at 4.00 m
     0:00:00: Pump P1 closed
   
     0:05:00: Balancing the network:
              Trial  1: relative flow change = 0.000000
     0:05:00: Balanced after 1 trials
   
     0:10:00: Balancing the network:
              Trial  1: relative flow change = 0.000000
     0:10:00: Balanced after 1 trials
   
     0:15:00: Balancing the network:
              Trial  1: relative flow change = 0.000000
     0:15:00: Balanced after 1 trials
   
     0:20:00: Balancing the network:
              Trial  1: relative flow change = 0.000000
     0:20:00: Balanced after 1 trials
   
     0:25:00: Balancing the network:
              Trial  1: relative flow change = 0.000000
     0:25:00: Balanced after 1 trials
   
     0:30:00: Balancing the network:
              Trial  1: relative flow change = 0.023722
              Trial  2: relative flow change = 0.000000
     0:30:00: Balanced after 2 trials
   
     0:35:00: Balancing the network:
              Trial  1: relative flow change = 0.000000
     0:35:00: Balanced after 1 trials
   
     0:40:00: Balancing the network:
              Trial  1: relative flow change = 0.000000
     0:40:00: Balanced after 1 trials
   
     0:45:00: Balancing the network:
              Trial  1: relative flow change = 0.000000
     0:45:00: Balanced after 1 trials
   
     0:50:00: Balancing the network:
              Trial  1: relative flow change = 0.000000
     0:50:00: Balanced after 1 trials
   
     0:55:00: Balancing the network:
              Trial  1: relative flow change = 0.000000
     0:55:00: Balanced after 1 trials
   
     1:00:00: Balancing the network:
              Trial  1: relative flow change = 0.035211
              Trial  2: relative flow change = 0.000000
     1:00:00: Balanced after 2 trials
   
     1:05:00: Balancing the network:
              Trial  1: relative flow change = 0.000000
     1:05:00: Balanced after 1 trials
   
     1:10:00: Balancing the network:
              Trial  1: relative flow change = 0.000000
     1:10:00: Balanced after 1 trials
   
     1:15:00: Balancing the network:
              Trial  1: relative flow change = 0.000000
     1:15:00: Balanced after 1 trials
   
     1:20:00: Balancing the network:
              Trial  1: relative flow change = 0.000000
     1:20:00: Balanced after 1 trials
   
     1:25:00: Balancing the network:
              Trial  1: relative flow change = 0.000000
     1:25:00: Balanced after 1 trials
   
     1:30:00: Balancing the network:
              Trial  1: relative flow change = 0.041630
              Trial  2: relative flow change = 0.000000
     1:30:00: Balanced after 2 trials
   
     1:35:00: Balancing the network:
              Trial  1: relative flow change = 0.000000
     1:35:00: Balanced after 1 trials
   
     1:40:00: Balancing the network:
              Trial  1: relative flow change = 0.000000
     1:40:00: Balanced after 1 trials
   
     1:45:00: Balancing the network:
              Trial  1: relative flow change = 0.000000
     1:45:00: Balanced after 1 trials
   
     1:50:00: Balancing the network:
              Trial  1: relative flow change = 0.000000
     1:50:00: Balanced after 1 trials
   
     1:55:00: Balancing the network:
              Trial  1: relative flow change = 0.000000
     1:55:00: Balanced after 1 trials
   
     2:00:00: Pump P1 changed by timer control
     2:00:00: Balancing the network:
              Trial  1: relative flow change = 0.996264
              Trial  2: relative flow change = 0.982574
              Trial  3: relative flow change = 0.953750
              Trial  4: relative flow change = 0.868956
              Trial  5: relative flow change = 0.648992
              Trial  6: relative flow change = 0.291674
              Trial  7: relative flow change = 0.048950
              Trial  8: relative flow change = 0.001342
              Trial  9: relative flow change = 0.000002
     2:00:00: Balanced after 9 trials
     2:00:00: Reservoir Source is emptying
     2:00:00: Tank Tank1 is filling at 2.82 m
     2:00:00: Pump P1 changed from closed to open
   
     2:05:00: Balancing the network:
              Trial  1: relative flow change = 0.000163
     2:05:00: Balanced after 1 trials
   
     2:10:00: Balancing the network:
              Trial  1: relative flow change = 0.000163
     2:10:00: Balanced after 1 trials
   
     2:15:00: Balancing the network:
              Trial  1: relative flow change = 0.000163
     2:15:00: Balanced after 1 trials
   
     2:20:00: Balancing the network:
              Trial  1: relative flow change = 0.000163
     2:20:00: Balanced after 1 trials
   
     2:25:00: Balancing the network:
              Trial  1: relative flow change = 0.000163
     2:25:00: Balanced after 1 trials
   
     2:30:00: Balancing the network:
              Trial  1: relative flow change = 0.005295
              Trial  2: relative flow change = 0.000000
     2:30:00: Balanced after 2 trials
   
     2:35:00: Balancing the network:
              Trial  1: relative flow change = 0.000168
     2:35:00: Balanced after 1 trials
   
     2:40:00: Balancing the network:
              Trial  1: relative flow change = 0.000168
     2:40:00: Balanced after 1 trials
   
     2:45:00: Balancing the network:
              Trial  1: relative flow change = 0.000168
     2:45:00: Balanced after 1 trials
   
     2:50:00: Balancing the network:
              Trial  1: relative flow change = 0.000168
     2:50:00: Balanced after 1 trials
   
     2:55:00: Balancing the network:
              Trial  1: relative flow change = 0.000168
     2:55:00: Balanced after 1 trials
   
     3:00:00: Balancing the network:
              Trial  1: relative flow change = 0.004537
              Trial  2: relative flow change = 0.000001
     3:00:00: Balanced after 2 trials
   
     3:05:00: Balancing the network:
              Trial  1: relative flow change = 0.000172
     3:05:00: Balanced after 1 trials
   
     3:10:00: Balancing the network:
              Trial  1: relative flow change = 0.000172
     3:10:00: Balanced after 1 trials
   
     3:15:00: Balancing the network:
              Trial  1: relative flow change = 0.000172
     3:15:00: Balanced after 1 trials
   
     3:20:00: Balancing the network:
              Trial  1: relative flow change = 0.000172
     3:20:00: Balanced after 1 trials
   
     3:25:00: Balancing the network:
              Trial  1: relative flow change = 0.000172
     3:25:00: Balanced after 1 trials
   
     3:30:00: Balancing the network:
              Trial  1: relative flow change = 0.003536
              Trial  2: relative flow change = 0.000001
     3:30:00: Balanced after 2 trials
   
     3:35:00: Balancing the network:
              Trial  1: relative flow change = 0.000175
     3:35:00: Balanced after 1 trials
   
     3:40:00: Balancing the network:
              Trial  1: relative flow change = 0.000175
     3:40:00: Balanced after 1 trials
   
     3:45:00: Balancing the network:
              Trial  1: relative flow change = 0.000175
     3:45:00: Balanced after 1 trials
   
     3:50:00: Balancing the network:
              Trial  1: relative flow change = 0.000175
     3:50:00: Balanced after 1 trials
   
     3:55:00: Balancing the network:
              Trial  1: relative flow change = 0.000175
     3:55:00: Balanced after 1 trials
   
     4:00:00: Pump P1 changed by timer control
     4:00:00: Balancing the network:
              Trial  1: relative flow change = 7.905817
              Trial  2: relative flow change = 0.000010
     4:00:00: Balanced after 2 trials
     4:00:00: Reservoir Source is closed
     4:00:00: Tank Tank1 is emptying at 4.38 m
     4:00:00: Pump P1 changed from open to closed
   
     4:05:00: Balancing the network:
              Trial  1: relative flow change = 0.000000
     4:05:00: Balanced after 1 trials
   
     4:10:00: Balancing the network:
              Trial  1: relative flow change = 0.000000
     4:10:00: Balanced after 1 trials
   
     4:15:00: Balancing the network:
              Trial  1: relative flow change = 0.000000
     4:15:00: Balanced after 1 trials
   
     4:20:00: Balancing the network:
              Trial  1: relative flow change = 0.000000
     4:20:00: Balanced after 1 trials
   
     4:25:00: Balancing the network:
              Trial  1: relative flow change = 0.000000
     4:25:00: Balanced after 1 trials
   
     4:30:00: Balancing the network:
              Trial  1: relative flow change = 0.009286
              Trial  2: relative flow change = 0.000000
     4:30:00: Balanced after 2 trials
   
     4:35:00: Balancing the network:
              Trial  1: relative flow change = 0.000000
     4:35:00: Balanced after 1 trials
   
     4:40:00: Balancing the network:
              Trial  1: relative flow change = 0.000000
     4:40:00: Balanced after 1 trials
   
     4:45:00: Balancing the network:
              Trial  1: relative flow change = 0.000000
     4:45:00: Balanced after 1 trials
   
     4:50:00: Balancing the network:
              Trial  1: relative flow change = 0.000000
     4:50:00: Balanced after 1 trials
   
     4:55:00: Balancing the network:
              Trial  1: relative flow change = 0.000000
     4:55:00: Balanced after 1 trials
   
     5:00:00: Pump P1 changed by timer control
     5:00:00: Balancing the network:
              Trial  1: relative flow change = 0.996700
              Trial  2: relative flow change = 0.982308
              Trial  3: relative flow change = 0.951109
              Trial  4: relative flow change = 0.857199
              Trial  5: relative flow change = 0.617120
              Trial  6: relative flow change = 0.254221
              Trial  7: relative flow change = 0.036313
              Trial  8: relative flow change = 0.000733
     5:00:00: Balanced after 8 trials
     5:00:00: Reservoir Source is emptying
     5:00:00: Tank Tank1 is filling at 3.89 m
     5:00:00: Pump P1 changed from closed to open
   
     5:05:00: Balancing the network:
              Trial  1: relative flow change = 0.000176
     5:05:00: Balanced after 1 trials
   
     5:10:00: Balancing the network:
              Trial  1: relative flow change = 0.000176
     5:10:00: Balanced after 1 trials
   
     5:15:00: Balancing the network:
              Trial  1: relative flow change = 0.000176
     5:15:00: Balanced after 1 trials
   
     5:20:00: Balancing the network:
              Trial  1: relative flow change = 0.000176
     5:20:00: Balanced after 1 trials
   
     5:25:00: Balancing the network:
              Trial  1: relative flow change = 0.000176
     5:25:00: Balanced after 1 trials
   
     5:30:00: Balancing the network:
              Trial  1: relative flow change = 0.002436
              Trial  2: relative flow change = 0.000001
     5:30:00: Balanced after 2 trials
   
     5:35:00: Balancing the network:
              Trial  1: relative flow change = 0.000173
     5:35:00: Balanced after 1 trials
   
     5:40:00: Balancing the network:
              Trial  1: relative flow change = 0.000173
     5:40:00: Balanced after 1 trials
   
     5:45:00: Balancing the network:
              Trial  1: relative flow change = 0.000173
     5:45:00: Balanced after 1 trials
   
     5:50:00: Balancing the network:
              Trial  1: relative flow change = 0.000173
     5:50:00: Balanced after 1 trials
   
     5:54:00: Pump P1 changed by timer control
     5:54:00: Balancing the network:
              Trial  1: relative flow change = 7.667929
              Trial  2: relative flow change = 0.000010
     5:54:00: Balanced after 2 trials
     5:54:00: Reservoir Source is closed
     5:54:00: Tank Tank1 is emptying at 4.60 m
     5:54:00: Pump P1 changed from open to closed
   
     5:55:00: Balancing the network:
              Trial  1: relative flow change = 0.000000
     5:55:00: Balanced after 1 trials
   
     6:00:00: Pump P1 changed by timer control
     6:00:00: Balancing the network:
              Trial  1: relative flow change = 0.996497
              Trial  2: relative flow change = 0.980856
              Trial  3: relative flow change = 0.947386
              Trial  4: relative flow change = 0.847701
              Trial  5: relative flow change = 0.598519
              Trial  6: relative flow change = 0.236919
              Trial  7: relative flow change = 0.031546
              Trial  8: relative flow change = 0.000557
     6:00:00: Balanced after 8 trials
     6:00:00: Reservoir Source is emptying
     6:00:00: Tank Tank1 is filling at 4.55 m
     6:00:00: Pump P1 changed from closed to open
   
     6:05:00: Balancing the network:
              Trial  1: relative flow change = 0.000171
     6:05:00: Balanced after 1 trials
   
     6:10:00: Balancing the network:
              Trial  1: relative flow change = 0.000170
     6:10:00: Balanced after 1 trials
   
     6:15:00: Balancing the network:
              Trial  1: relative flow change = 0.000170
     6:15:00: Balanced after 1 trials
   
     6:20:00: Balancing the network:
              Trial  1: relative flow change = 0.000170
     6:20:00: Balanced after 1 trials
   
     6:25:00: Balancing the network:
              Trial  1: relative flow change = 0.000170
     6:25:00: Balanced after 1 trials
   
     6:30:00: Balancing the network:
              Trial  1: relative flow change = 0.004234
              Trial  2: relative flow change = 0.000001
     6:30:00: Balanced after 2 trials
   
     6:35:00: Balancing the network:
              Trial  1: relative flow change = 0.000166
     6:35:00: Balanced after 1 trials
   
     6:40:00: Balancing the network:
              Trial  1: relative flow change = 0.000166
     6:40:00: Balanced after 1 trials
   
     6:45:00: Balancing the network:
              Trial  1: relative flow change = 0.000166
     6:45:00: Balanced after 1 trials
   
     6:50:00: Balancing the network:
              Trial  1: relative flow change = 0.000166
     6:50:00: Balanced after 1 trials
   
     6:54:00: Pump P1 changed by timer control
     6:54:00: Balancing the network:
              Trial  1: relative flow change = 7.223571
              Trial  2: relative flow change = 0.000009
     6:54:00: Balanced after 2 trials
     6:54:00: Reservoir Source is closed
     6:54:00: Tank Tank1 is emptying at 5.24 m
     6:54:00: Pump P1 changed from open to closed
   
     6:55:00: Balancing the network:
              Trial  1: relative flow change = 0.000000
     6:55:00: Balanced after 1 trials
   
     7:00:00: Pump P1 changed by timer control
     7:00:00: Balancing the network:
              Trial  1: relative flow change = 0.996013
              Trial  2: relative flow change = 0.978857
              Trial  3: relative flow change = 0.942569
              Trial  4: relative flow change = 0.836254
              Trial  5: relative flow change = 0.577807
              Trial  6: relative flow change = 0.219234
              Trial  7: relative flow change = 0.027112
              Trial  8: relative flow change = 0.000417
     7:00:00: Balanced after 8 trials
     7:00:00: Reservoir Source is emptying
     7:00:00: Tank Tank1 is filling at 5.19 m
     7:00:00: Pump P1 changed from closed to open
   
     7:05:00: Balancing the network:
              Trial  1: relative flow change = 0.000162
     7:05:00: Balanced after 1 trials
   
     7:10:00: Balancing the network:
              Trial  1: relative flow change = 0.000161
     7:10:00: Balanced after 1 trials
   
     7:15:00: Balancing the network:
              Trial  1: relative flow change = 0.000161
     7:15:00: Balanced after 1 trials
   
     7:20:00: Balancing the network:
              Trial  1: relative flow change = 0.000161
     7:20:00: Balanced after 1 trials
   
     7:25:00: Balancing the network:
              Trial  1: relative flow change = 0.000161
     7:25:00: Balanced after 1 trials
   
     7:30:00: Balancing the network:
              Trial  1: relative flow change = 0.005240
              Trial  2: relative flow change = 0.000001
     7:30:00: Balanced after 2 trials
   
     7:35:00: Balancing the network:
              Trial  1: relative flow change = 0.000156
     7:35:00: Balanced after 1 trials
   
     7:40:00: Balancing the network:
              Trial  1: relative flow change = 0.000156
     7:40:00: Balanced after 1 trials
   
     7:45:00: Balancing the network:
              Trial  1: relative flow change = 0.000156
     7:45:00: Balanced after 1 trials
   
     7:50:00: Balancing the network:
              Trial  1: relative flow change = 0.000156
     7:50:00: Balanced after 1 trials
   
     7:54:00: Pump P1 changed by timer control
     7:54:00: Balancing the network:
              Trial  1: relative flow change = 6.708172
              Trial  2: relative flow change = 0.000009
     7:54:00: Balanced after 2 trials
     7:54:00: Reservoir Source is closed
     7:54:00: Tank Tank1 is emptying at 5.85 m
     7:54:00: Pump P1 changed from open to closed
   
     7:55:00: Balancing the network:
              Trial  1: relative flow change = 0.000000
     7:55:00: Balanced after 1 trials
   
     8:00:00: Balancing the network:
              Trial  1: relative flow change = 0.036889
              Trial  2: relative flow change = 0.000000
     8:00:00: Balanced after 2 trials
   
     8:05:00: Balancing the network:
              Trial  1: relative flow change = 0.000000
     8:05:00: Balanced after 1 trials
   
     8:10:00: Balancing the network:
              Trial  1: relative flow change = 0.000000
     8:10:00: Balanced after 1 trials
   
     8:15:00: Balancing the network:
              Trial  1: relative flow change = 0.000000
     8:15:00: Balanced after 1 trials
   
     8:20:00: Balancing the network:
              Trial  1: relative flow change = 0.000000
     8:20:00: Balanced after 1 trials
   
     8:25:00: Balancing the network:
              Trial  1: relative flow change = 0.000000
     8:25:00: Balanced after 1 trials
   
     8:30:00: Balancing the network:
              Trial  1: relative flow change = 0.035637
              Trial  2: relative flow change = 0.000000
     8:30:00: Balanced after 2 trials
   
     8:35:00: Balancing the network:
              Trial  1: relative flow change = 0.000000
     8:35:00: Balanced after 1 trials
   
     8:40:00: Balancing the network:
              Trial  1: relative flow change = 0.000000
     8:40:00: Balanced after 1 trials
   
     8:45:00: Balancing the network:
              Trial  1: relative flow change = 0.000000
     8:45:00: Balanced after 1 trials
   
     8:50:00: Balancing the network:
              Trial  1: relative flow change = 0.000000
     8:50:00: Balanced after 1 trials
   
     8:55:00: Balancing the network:
              Trial  1: relative flow change = 0.000000
     8:55:00: Balanced after 1 trials
   
     9:00:00: Balancing the network:
              Trial  1: relative flow change = 0.033285
              Trial  2: relative flow change = 0.000000
     9:00:00: Balanced after 2 trials
   
     9:05:00: Balancing the network:
              Trial  1: relative flow change = 0.000000
     9:05:00: Balanced after 1 trials
   
     9:10:00: Balancing the network:
              Trial  1: relative flow change = 0.000000
     9:10:00: Balanced after 1 trials
   
     9:15:00: Balancing the network:
              Trial  1: relative flow change = 0.000000
     9:15:00: Balanced after 1 trials
   
     9:20:00: Balancing the network:
              Trial  1: relative flow change = 0.000000
     9:20:00: Balanced after 1 trials
   
     9:25:00: Balancing the network:
              Trial  1: relative flow change = 0.000000
     9:25:00: Balanced after 1 trials
   
     9:30:00: Balancing the network:
              Trial  1: relative flow change = 0.030128
              Trial  2: relative flow change = 0.000000
     9:30:00: Balanced after 2 trials
   
     9:35:00: Balancing the network:
              Trial  1: relative flow change = 0.000000
     9:35:00: Balanced after 1 trials
   
     9:40:00: Balancing the network:
              Trial  1: relative flow change = 0.000000
     9:40:00: Balanced after 1 trials
   
     9:45:00: Balancing the network:
              Trial  1: relative flow change = 0.000000
     9:45:00: Balanced after 1 trials
   
     9:50:00: Balancing the network:
              Trial  1: relative flow change = 0.000000
     9:50:00: Balanced after 1 trials
   
     9:55:00: Balancing the network:
              Trial  1: relative flow change = 0.000000
     9:55:00: Balanced after 1 trials
   
    10:00:00: Balancing the network:
              Trial  1: relative flow change = 0.026354
              Trial  2: relative flow change = 0.000000
    10:00:00: Balanced after 2 trials
   
    10:05:00: Balancing the network:
              Trial  1: relative flow change = 0.000000
    10:05:00: Balanced after 1 trials
   
    10:10:00: Balancing the network:
              Trial  1: relative flow change = 0.000000
    10:10:00: Balanced after 1 trials
   
    10:15:00: Balancing the network:
              Trial  1: relative flow change = 0.000000
    10:15:00: Balanced after 1 trials
   
    10:20:00: Balancing the network:
              Trial  1: relative flow change = 0.000000
    10:20:00: Balanced after 1 trials
   
    10:25:00: Balancing the network:
              Trial  1: relative flow change = 0.000000
    10:25:00: Balanced after 1 trials
   
    10:30:00: Balancing the network:
              Trial  1: relative flow change = 0.022160
              Trial  2: relative flow change = 0.000000
    10:30:00: Balanced after 2 trials
   
    10:35:00: Balancing the network:
              Trial  1: relative flow change = 0.000000
    10:35:00: Balanced after 1 trials
   
    10:40:00: Balancing the network:
              Trial  1: relative flow change = 0.000000
    10:40:00: Balanced after 1 trials
   
    10:45:00: Balancing the network:
              Trial  1: relative flow change = 0.000000
    10:45:00: Balanced after 1 trials
   
    10:50:00: Balancing the network:
              Trial  1: relative flow change = 0.000000
    10:50:00: Balanced after 1 trials
   
    10:55:00: Balancing the network:
              Trial  1: relative flow change = 0.000000
    10:55:00: Balanced after 1 trials
   
    11:00:00: Balancing the network:
              Trial  1: relative flow change = 0.017720
              Trial  2: relative flow change = 0.000000
    11:00:00: Balanced after 2 trials
   
    11:05:00: Balancing the network:
              Trial  1: relative flow change = 0.000000
    11:05:00: Balanced after 1 trials
   
    11:10:00: Balancing the network:
              Trial  1: relative flow change = 0.000000
    11:10:00: Balanced after 1 trials
   
    11:15:00: Balancing the network:
              Trial  1: relative flow change = 0.000000
    11:15:00: Balanced after 1 trials
   
    11:20:00: Balancing the network:
              Trial  1: relative flow change = 0.000000
    11:20:00: Balanced after 1 trials
   
    11:25:00: Balancing the network:
              Trial  1: relative flow change = 0.000000
    11:25:00: Balanced after 1 trials
   
    11:30:00: Balancing the network:
              Trial  1: relative flow change = 0.013196
              Trial  2: relative flow change = 0.000000
    11:30:00: Balanced after 2 trials
   
    11:35:00: Balancing the network:
              Trial  1: relative flow change = 0.000000
    11:35:00: Balanced after 1 trials
   
    11:40:00: Balancing the network:
              Trial  1: relative flow change = 0.000000
    11:40:00: Balanced after 1 trials
   
    11:45:00: Balancing the network:
              Trial  1: relative flow change = 0.000000
    11:45:00: Balanced after 1 trials
   
    11:50:00: Balancing the network:
              Trial  1: relative flow change = 0.000000
    11:50:00: Balanced after 1 trials
   
    11:55:00: Balancing the network:
              Trial  1: relative flow change = 0.000000
    11:55:00: Balanced after 1 trials
   
    12:00:00: Balancing the network:
              Trial  1: relative flow change = 0.008712
              Trial  2: relative flow change = 0.000000
    12:00:00: Balanced after 2 trials
   
    12:05:00: Balancing the network:
              Trial  1: relative flow change = 0.000000
    12:05:00: Balanced after 1 trials
   
    12:10:00: Balancing the network:
              Trial  1: relative flow change = 0.000000
    12:10:00: Balanced after 1 trials
   
    12:15:00: Balancing the network:
              Trial  1: relative flow change = 0.000000
    12:15:00: Balanced after 1 trials
   
    12:20:00: Balancing the network:
              Trial  1: relative flow change = 0.000000
    12:20:00: Balanced after 1 trials
   
    12:25:00: Balancing the network:
              Trial  1: relative flow change = 0.000000
    12:25:00: Balanced after 1 trials
   
    12:30:00: Balancing the network:
              Trial  1: relative flow change = 0.004394
              Trial  2: relative flow change = 0.000000
    12:30:00: Balanced after 2 trials
   
    12:35:00: Balancing the network:
              Trial  1: relative flow change = 0.000000
    12:35:00: Balanced after 1 trials
   
    12:40:00: Balancing the network:
              Trial  1: relative flow change = 0.000000
    12:40:00: Balanced after 1 trials
   
    12:45:00: Balancing the network:
              Trial  1: relative flow change = 0.000000
    12:45:00: Balanced after 1 trials
   
    12:50:00: Balancing the network:
              Trial  1: relative flow change = 0.000000
    12:50:00: Balanced after 1 trials
   
    12:55:00: Balancing the network:
              Trial  1: relative flow change = 0.000000
    12:55:00: Balanced after 1 trials
   
    13:00:00: Balancing the network:
              Trial  1: relative flow change = 0.003567
              Trial  2: relative flow change = 0.000000
    13:00:00: Balanced after 2 trials
   
    13:05:00: Balancing the network:
              Trial  1: relative flow change = 0.000000
    13:05:00: Balanced after 1 trials
   
    13:10:00: Balancing the network:
              Trial  1: relative flow change = 0.000000
    13:10:00: Balanced after 1 trials
   
    13:15:00: Balancing the network:
              Trial  1: relative flow change = 0.000000
    13:15:00: Balanced after 1 trials
   
    13:20:00: Balancing the network:
              Trial  1: relative flow change = 0.000000
    13:20:00: Balanced after 1 trials
   
    13:25:00: Balancing the network:
              Trial  1: relative flow change = 0.000000
    13:25:00: Balanced after 1 trials
   
    13:30:00: Balancing the network:
              Trial  1: relative flow change = 0.006561
              Trial  2: relative flow change = 0.000000
    13:30:00: Balanced after 2 trials
   
    13:35:00: Balancing the network:
              Trial  1: relative flow change = 0.000000
    13:35:00: Balanced after 1 trials
   
    13:40:00: Balancing the network:
              Trial  1: relative flow change = 0.000000
    13:40:00: Balanced after 1 trials
   
    13:45:00: Balancing the network:
              Trial  1: relative flow change = 0.000000
    13:45:00: Balanced after 1 trials
   
    13:50:00: Balancing the network:
              Trial  1: relative flow change = 0.000000
    13:50:00: Balanced after 1 trials
   
    13:55:00: Balancing the network:
              Trial  1: relative flow change = 0.000000
    13:55:00: Balanced after 1 trials
   
    14:00:00: Balancing the network:
              Trial  1: relative flow change = 0.008949
              Trial  2: relative flow change = 0.000000
    14:00:00: Balanced after 2 trials
   
    14:05:00: Balancing the network:
              Trial  1: relative flow change = 0.000000
    14:05:00: Balanced after 1 trials
   
    14:10:00: Balancing the network:
              Trial  1: relative flow change = 0.000000
    14:10:00: Balanced after 1 trials
   
    14:15:00: Balancing the network:
              Trial  1: relative flow change = 0.000000
    14:15:00: Balanced after 1 trials
   
    14:20:00: Balancing the network:
              Trial  1: relative flow change = 0.000000
    14:20:00: Balanced after 1 trials
   
    14:25:00: Balancing the network:
              Trial  1: relative flow change = 0.000000
    14:25:00: Balanced after 1 trials
   
    14:30:00: Balancing the network:
              Trial  1: relative flow change = 0.010608
              Trial  2: relative flow change = 0.000000
    14:30:00: Balanced after 2 trials
   
    14:35:00: Balancing the network:
              Trial  1: relative flow change = 0.000000
    14:35:00: Balanced after 1 trials
   
    14:40:00: Balancing the network:
              Trial  1: relative flow change = 0.000000
    14:40:00: Balanced after 1 trials
   
    14:45:00: Balancing the network:
              Trial  1: relative flow change = 0.000000
    14:45:00: Balanced after 1 trials
   
    14:50:00: Balancing the network:
              Trial  1: relative flow change = 0.000000
    14:50:00: Balanced after 1 trials
   
    14:55:00: Balancing the network:
              Trial  1: relative flow change = 0.000000
    14:55:00: Balanced after 1 trials
   
  WARNING: Negative pressures at 14:55:00 hrs.
  
    15:00:00: Balancing the network:
              Trial  1: relative flow change = 0.011419
              Trial  2: relative flow change = 0.000000
    15:00:00: Balanced after 2 trials
   
  WARNING: Negative pressures at 15:00:00 hrs.
  
    15:05:00: Balancing the network:
              Trial  1: relative flow change = 0.000000
    15:05:00: Balanced after 1 trials
   
  WARNING: Negative pressures at 15:05:00 hrs.
  
    15:10:00: Balancing the network:
              Trial  1: relative flow change = 0.000000
    15:10:00: Balanced after 1 trials
   
  WARNING: Negative pressures at 15:10:00 hrs.
  
    15:15:00: Balancing the network:
              Trial  1: relative flow change = 0.000000
    15:15:00: Balanced after 1 trials
   
  WARNING: Negative pressures at 15:15:00 hrs.
  
    15:20:00: Balancing the network:
              Trial  1: relative flow change = 0.000000
    15:20:00: Balanced after 1 trials
   
  WARNING: Negative pressures at 15:20:00 hrs.
  
    15:25:00: Balancing the network:
              Trial  1: relative flow change = 0.000000
    15:25:00: Balanced after 1 trials
   
  WARNING: Negative pressures at 15:25:00 hrs.
  
    15:30:00: Balancing the network:
              Trial  1: relative flow change = 0.011285
              Trial  2: relative flow change = 0.000000
    15:30:00: Balanced after 2 trials
   
  WARNING: Negative pressures at 15:30:00 hrs.
  
    15:35:00: Balancing the network:
              Trial  1: relative flow change = 0.000000
    15:35:00: Balanced after 1 trials
   
  WARNING: Negative pressures at 15:35:00 hrs.
  
    15:40:00: Balancing the network:
              Trial  1: relative flow change = 0.000000
    15:40:00: Balanced after 1 trials
   
  WARNING: Negative pressures at 15:40:00 hrs.
  
    15:45:00: Balancing the network:
              Trial  1: relative flow change = 0.000000
    15:45:00: Balanced after 1 trials
   
  WARNING: Negative pressures at 15:45:00 hrs.
  
    15:50:00: Balancing the network:
              Trial  1: relative flow change = 0.000000
    15:50:00: Balanced after 1 trials
   
  WARNING: Negative pressures at 15:50:00 hrs.
  
    15:55:00: Balancing the network:
              Trial  1: relative flow change = 0.000000
    15:55:00: Balanced after 1 trials
   
  WARNING: Negative pressures at 15:55:00 hrs.
  
    16:00:00: Balancing the network:
              Trial  1: relative flow change = 0.010669
              Trial  2: relative flow change = 0.000000
    16:00:00: Balanced after 2 trials
   
  WARNING: Negative pressures at 16:00:00 hrs.
  
    16:05:00: Balancing the network:
              Trial  1: relative flow change = 0.000000
    16:05:00: Balanced after 1 trials
   
  WARNING: Negative pressures at 16:05:00 hrs.
  
    16:10:00: Balancing the network:
              Trial  1: relative flow change = 0.000000
    16:10:00: Balanced after 1 trials
   
  WARNING: Negative pressures at 16:10:00 hrs.
  
    16:15:00: Balancing the network:
              Trial  1: relative flow change = 0.000000
    16:15:00: Balanced after 1 trials
   
  WARNING: Negative pressures at 16:15:00 hrs.
  
    16:20:00: Balancing the network:
              Trial  1: relative flow change = 0.000000
    16:20:00: Balanced after 1 trials
   
  WARNING: Negative pressures at 16:20:00 hrs.
  
    16:25:00: Balancing the network:
              Trial  1: relative flow change = 0.000000
    16:25:00: Balanced after 1 trials
   
  WARNING: Negative pressures at 16:25:00 hrs.
  
    16:30:00: Balancing the network:
              Trial  1: relative flow change = 0.009461
              Trial  2: relative flow change = 0.000000
    16:30:00: Balanced after 2 trials
   
  WARNING: Negative pressures at 16:30:00 hrs.
  
    16:35:00: Balancing the network:
              Trial  1: relative flow change = 0.000000
    16:35:00: Balanced after 1 trials
   
  WARNING: Negative pressures at 16:35:00 hrs.
  
    16:40:00: Balancing the network:
              Trial  1: relative flow change = 0.000000
    16:40:00: Balanced after 1 trials
   
  WARNING: Negative pressures at 16:40:00 hrs.
  
    16:45:00: Balancing the network:
              Trial  1: relative flow change = 0.000000
    16:45:00: Balanced after 1 trials
   
  WARNING: Negative pressures at 16:45:00 hrs.
  
    16:50:00: Balancing the network:
              Trial  1: relative flow change = 0.000000
    16:50:00: Balanced after 1 trials
   
  WARNING: Negative pressures at 16:50:00 hrs.
  
    16:55:00: Balancing the network:
              Trial  1: relative flow change = 0.000000
    16:55:00: Balanced after 1 trials
   
  WARNING: Negative pressures at 16:55:00 hrs.
  
    17:00:00: Pump P1 changed by timer control
    17:00:00: Balancing the network:
              Trial  1: relative flow change = 0.993790
              Trial  2: relative flow change = 0.969947
              Trial  3: relative flow change = 0.919922
              Trial  4: relative flow change = 0.780955
              Trial  5: relative flow change = 0.482106
              Trial  6: relative flow change = 0.146995
              Trial  7: relative flow change = 0.012295
              Trial  8: relative flow change = 0.000091
    17:00:00: Balanced after 8 trials
    17:00:00: Reservoir Source is emptying
    17:00:00: Tank Tank1 is filling at -0.47 m
    17:00:00: Pump P1 changed from closed to open
   
  WARNING: Negative pressures at 17:00:00 hrs.
  
    17:05:00: Balancing the network:
              Trial  1: relative flow change = 0.000133
    17:05:00: Balanced after 1 trials
   
  WARNING: Negative pressures at 17:05:00 hrs.
  
    17:10:00: Balancing the network:
              Trial  1: relative flow change = 0.000133
    17:10:00: Balanced after 1 trials
   
  WARNING: Negative pressures at 17:10:00 hrs.
  
    17:15:00: Balancing the network:
              Trial  1: relative flow change = 0.000133
    17:15:00: Balanced after 1 trials
   
  WARNING: Negative pressures at 17:15:00 hrs.
  
    17:20:00: Balancing the network:
              Trial  1: relative flow change = 0.000133
    17:20:00: Balanced after 1 trials
   
  WARNING: Negative pressures at 17:20:00 hrs.
  
    17:25:00: Balancing the network:
              Trial  1: relative flow change = 0.000133
    17:25:00: Balanced after 1 trials
   
  WARNING: Negative pressures at 17:25:00 hrs.
  
    17:30:00: Balancing the network:
              Trial  1: relative flow change = 0.000817
    17:30:00: Balanced after 1 trials
   
  WARNING: Negative pressures at 17:30:00 hrs.
  
    17:35:00: Balancing the network:
              Trial  1: relative flow change = 0.000133
    17:35:00: Balanced after 1 trials
   
  WARNING: Negative pressures at 17:35:00 hrs.
  
    17:40:00: Balancing the network:
              Trial  1: relative flow change = 0.000133
    17:40:00: Balanced after 1 trials
   
  WARNING: Negative pressures at 17:40:00 hrs.
  
    17:45:00: Balancing the network:
              Trial  1: relative flow change = 0.000133
    17:45:00: Balanced after 1 trials
   
  WARNING: Negative pressures at 17:45:00 hrs.
  
    17:50:00: Balancing the network:
              Trial  1: relative flow change = 0.000133
    17:50:00: Balanced after 1 trials
   
  WARNING: Negative pressures at 17:50:00 hrs.
  
    17:55:00: Balancing the network:
              Trial  1: relative flow change = 0.000133
    17:55:00: Balanced after 1 trials
   
  WARNING: Negative pressures at 17:55:00 hrs.
  
    18:00:00: Balancing the network:
              Trial  1: relative flow change = 0.000767
    18:00:00: Balanced after 1 trials
   
    18:05:00: Balancing the network:
              Trial  1: relative flow change = 0.000133
    18:05:00: Balanced after 1 trials
   
    18:10:00: Balancing the network:
              Trial  1: relative flow change = 0.000133
    18:10:00: Balanced after 1 trials
   
    18:15:00: Balancing the network:
              Trial  1: relative flow change = 0.000133
    18:15:00: Balanced after 1 trials
   
    18:20:00: Balancing the network:
              Trial  1: relative flow change = 0.000133
    18:20:00: Balanced after 1 trials
   
    18:25:00: Balancing the network:
              Trial  1: relative flow change = 0.000133
    18:25:00: Balanced after 1 trials
   
    18:30:00: Balancing the network:
              Trial  1: relative flow change = 0.001581
              Trial  2: relative flow change = 0.000000
    18:30:00: Balanced after 2 trials
   
    18:35:00: Balancing the network:
              Trial  1: relative flow change = 0.000133
    18:35:00: Balanced after 1 trials
   
    18:40:00: Balancing the network:
              Trial  1: relative flow change = 0.000133
    18:40:00: Balanced after 1 trials
   
    18:45:00: Balancing the network:
              Trial  1: relative flow change = 0.000133
    18:45:00: Balanced after 1 trials
   
    18:50:00: Balancing the network:
              Trial  1: relative flow change = 0.000133
    18:50:00: Balanced after 1 trials
   
    18:55:00: Balancing the network:
              Trial  1: relative flow change = 0.000133
    18:55:00: Balanced after 1 trials
   
    19:00:00: Balancing the network:
              Trial  1: relative flow change = 0.002386
              Trial  2: relative flow change = 0.000000
    19:00:00: Balanced after 2 trials
   
    19:01:12: Pump P1 changed by timer control
    19:01:12: Balancing the network:
              Trial  1: relative flow change = 5.758939
              Trial  2: relative flow change = 0.000007
    19:01:12: Balanced after 2 trials
    19:01:12: Reservoir Source is closed
    19:01:12: Tank Tank1 is emptying at 0.82 m
    19:01:12: Pump P1 changed from open to closed
   
  WARNING: Negative pressures at 19:01:12 hrs.
  
    19:05:00: Balancing the network:
              Trial  1: relative flow change = 0.000000
    19:05:00: Balanced after 1 trials
   
  WARNING: Negative pressures at 19:05:00 hrs.
  
    19:10:00: Balancing the network:
              Trial  1: relative flow change = 0.000000
    19:10:00: Balanced after 1 trials
   
  WARNING: Negative pressures at 19:10:00 hrs.
  
    19:15:00: Balancing the network:
              Trial  1: relative flow change = 0.000000
    19:15:00: Balanced after 1 trials
   
  WARNING: Negative pressures at 19:15:00 hrs.
  
    19:20:00: Balancing the network:
              Trial  1: relative flow change = 0.000000
    19:20:00: Balanced after 1 trials
   
  WARNING: Negative pressures at 19:20:00 hrs.
  
    19:25:00: Balancing the network:
              Trial  1: relative flow change = 0.000000
    19:25:00: Balanced after 1 trials
   
  WARNING: Negative pressures at 19:25:00 hrs.
  
    19:30:00: Balancing the network:
              Trial  1: relative flow change = 0.017941
              Trial  2: relative flow change = 0.000000
    19:30:00: Balanced after 2 trials
   
  WARNING: Negative pressures at 19:30:00 hrs.
  
    19:35:00: Balancing the network:
              Trial  1: relative flow change = 0.000000
    19:35:00: Balanced after 1 trials
   
  WARNING: Negative pressures at 19:35:00 hrs.
  
    19:40:00: Balancing the network:
              Trial  1: relative flow change = 0.000000
    19:40:00: Balanced after 1 trials
   
  WARNING: Negative pressures at 19:40:00 hrs.
  
    19:45:00: Balancing the network:
              Trial  1: relative flow change = 0.000000
    19:45:00: Balanced after 1 trials
   
  WARNING: Negative pressures at 19:45:00 hrs.
  
    19:50:00: Balancing the network:
              Trial  1: relative flow change = 0.000000
    19:50:00: Balanced after 1 trials
   
  WARNING: Negative pressures at 19:50:00 hrs.
  
    19:55:00: Balancing the network:
              Trial  1: relative flow change = 0.000000
    19:55:00: Balanced after 1 trials
   
  WARNING: Negative pressures at 19:55:00 hrs.
  
    20:00:00: Balancing the network:
              Trial  1: relative flow change = 0.021026
              Trial  2: relative flow change = 0.000000
    20:00:00: Balanced after 2 trials
   
  WARNING: Negative pressures at 20:00:00 hrs.
  
    20:05:00: Balancing the network:
              Trial  1: relative flow change = 0.000000
    20:05:00: Balanced after 1 trials
   
  WARNING: Negative pressures at 20:05:00 hrs.
  
    20:10:00: Balancing the network:
              Trial  1: relative flow change = 0.000000
    20:10:00: Balanced after 1 trials
   
  WARNING: Negative pressures at 20:10:00 hrs.
  
    20:15:00: Balancing the network:
              Trial  1: relative flow change = 0.000000
    20:15:00: Balanced after 1 trials
   
  WARNING: Negative pressures at 20:15:00 hrs.
  
    20:20:00: Balancing the network:
              Trial  1: relative flow change = 0.000000
    20:20:00: Balanced after 1 trials
   
  WARNING: Negative pressures at 20:20:00 hrs.
  
    20:25:00: Balancing the network:
              Trial  1: relative flow change = 0.000000
    20:25:00: Balanced after 1 trials
   
  WARNING: Negative pressures at 20:25:00 hrs.
  
    20:30:00: Balancing the network:
              Trial  1: relative flow change = 0.022418
              Trial  2: relative flow change = 0.000000
    20:30:00: Balanced after 2 trials
   
  WARNING: Negative pressures at 20:30:00 hrs.
  
    20:35:00: Balancing the network:
              Trial  1: relative flow change = 0.000000
    20:35:00: Balanced after 1 trials
   
  WARNING: Negative pressures at 20:35:00 hrs.
  
    20:40:00: Balancing the network:
              Trial  1: relative flow change = 0.000000
    20:40:00: Balanced after 1 trials
   
  WARNING: Negative pressures at 20:40:00 hrs.
  
    20:45:00: Balancing the network:
              Trial  1: relative flow change = 0.000000
    20:45:00: Balanced after 1 trials
   
  WARNING: Negative pressures at 20:45:00 hrs.
  
    20:50:00: Balancing the network:
              Trial  1: relative flow change = 0.000000
    20:50:00: Balanced after 1 trials
   
  WARNING: Negative pressures at 20:50:00 hrs.
  
    20:55:00: Balancing the network:
              Trial  1: relative flow change = 0.000000
    20:55:00: Balanced after 1 trials
   
  WARNING: Negative pressures at 20:55:00 hrs.
  
    21:00:00: Balancing the network:
              Trial  1: relative flow change = 0.021535
              Trial  2: relative flow change = 0.000000
    21:00:00: Balanced after 2 trials
   
  WARNING: Negative pressures at 21:00:00 hrs.
  
    21:05:00: Balancing the network:
              Trial  1: relative flow change = 0.000000
    21:05:00: Balanced after 1 trials
   
  WARNING: Negative pressures at 21:05:00 hrs.
  
    21:10:00: Balancing the network:
              Trial  1: relative flow change = 0.000000
    21:10:00: Balanced after 1 trials
   
  WARNING: Negative pressures at 21:10:00 hrs.
  
    21:15:00: Balancing the network:
              Trial  1: relative flow change = 0.000000
    21:15:00: Balanced after 1 trials
   
  WARNING: Negative pressures at 21:15:00 hrs.
  
    21:20:00: Balancing the network:
              Trial  1: relative flow change = 0.000000
    21:20:00: Balanced after 1 trials
   
  WARNING: Negative pressures at 21:20:00 hrs.
  
    21:25:00: Balancing the network:
              Trial  1: relative flow change = 0.000000
    21:25:00: Balanced after 1 trials
   
  WARNING: Negative pressures at 21:25:00 hrs.
  
    21:30:00: Balancing the network:
              Trial  1: relative flow change = 0.017652
              Trial  2: relative flow change = 0.000000
    21:30:00: Balanced after 2 trials
   
  WARNING: Negative pressures at 21:30:00 hrs.
  
    21:35:00: Balancing the network:
              Trial  1: relative flow change = 0.000000
    21:35:00: Balanced after 1 trials
   
  WARNING: Negative pressures at 21:35:00 hrs.
  
    21:40:00: Balancing the network:
              Trial  1: relative flow change = 0.000000
    21:40:00: Balanced after 1 trials
   
  WARNING: Negative pressures at 21:40:00 hrs.
  
    21:45:00: Balancing the network:
              Trial  1: relative flow change = 0.000000
    21:45:00: Balanced after 1 trials
   
  WARNING: Negative pressures at 21:45:00 hrs.
  
    21:50:00: Balancing the network:
              Trial  1: relative flow change = 0.000000
    21:50:00: Balanced after 1 trials
   
  WARNING: Negative pressures at 21:50:00 hrs.
  
    21:55:00: Balancing the network:
              Trial  1: relative flow change = 0.000000
    21:55:00: Balanced after 1 trials
   
  WARNING: Negative pressures at 21:55:00 hrs.
  
    22:00:00: Balancing the network:
              Trial  1: relative flow change = 0.009885
              Trial  2: relative flow change = 0.000000
    22:00:00: Balanced after 2 trials
   
  WARNING: Negative pressures at 22:00:00 hrs.
  
    22:05:00: Balancing the network:
              Trial  1: relative flow change = 0.000000
    22:05:00: Balanced after 1 trials
   
  WARNING: Negative pressures at 22:05:00 hrs.
  
    22:10:00: Balancing the network:
              Trial  1: relative flow change = 0.000000
    22:10:00: Balanced after 1 trials
   
  WARNING: Negative pressures at 22:10:00 hrs.
  
    22:15:00: Balancing the network:
              Trial  1: relative flow change = 0.000000
    22:15:00: Balanced after 1 trials
   
  WARNING: Negative pressures at 22:15:00 hrs.
  
    22:20:00: Balancing the network:
              Trial  1: relative flow change = 0.000000
    22:20:00: Balanced after 1 trials
   
  WARNING: Negative pressures at 22:20:00 hrs.
  
    22:25:00: Balancing the network:
              Trial  1: relative flow change = 0.000000
    22:25:00: Balanced after 1 trials
   
  WARNING: Negative pressures at 22:25:00 hrs.
  
    22:30:00: Balancing the network:
              Trial  1: relative flow change = 0.020689
              Trial  2: relative flow change = 0.000000
    22:30:00: Balanced after 2 trials
   
  WARNING: Negative pressures at 22:30:00 hrs.
  
    22:35:00: Balancing the network:
              Trial  1: relative flow change = 0.000000
    22:35:00: Balanced after 1 trials
   
  WARNING: Negative pressures at 22:35:00 hrs.
  
    22:40:00: Balancing the network:
              Trial  1: relative flow change = 0.000000
    22:40:00: Balanced after 1 trials
   
  WARNING: Negative pressures at 22:40:00 hrs.
  
    22:45:00: Balancing the network:
              Trial  1: relative flow change = 0.000000
    22:45:00: Balanced after 1 trials
   
  WARNING: Negative pressures at 22:45:00 hrs.
  
    22:50:00: Balancing the network:
              Trial  1: relative flow change = 0.000000
    22:50:00: Balanced after 1 trials
   
  WARNING: Negative pressures at 22:50:00 hrs.
  
    22:55:00: Balancing the network:
              Trial  1: relative flow change = 0.000000
    22:55:00: Balanced after 1 trials
   
  WARNING: Negative pressures at 22:55:00 hrs.
  
    23:00:00: Balancing the network:
              Trial  1: relative flow change = 0.043870
              Trial  2: relative flow change = 0.000000
    23:00:00: Balanced after 2 trials
   
  WARNING: Negative pressures at 23:00:00 hrs.
  
    23:05:00: Balancing the network:
              Trial  1: relative flow change = 0.000000
    23:05:00: Balanced after 1 trials
   
  WARNING: Negative pressures at 23:05:00 hrs.
  
    23:10:00: Balancing the network:
              Trial  1: relative flow change = 0.000000
    23:10:00: Balanced after 1 trials
   
  WARNING: Negative pressures at 23:10:00 hrs.
  
    23:15:00: Balancing the network:
              Trial  1: relative flow change = 0.000000
    23:15:00: Balanced after 1 trials
   
  WARNING: Negative pressures at 23:15:00 hrs.
  
    23:20:00: Balancing the network:
              Trial  1: relative flow change = 0.000000
    23:20:00: Balanced after 1 trials
   
  WARNING: Negative pressures at 23:20:00 hrs.
  
    23:25:00: Balancing the network:
              Trial  1: relative flow change = 0.000000
    23:25:00: Balanced after 1 trials
   
  WARNING: Negative pressures at 23:25:00 hrs.
  
    23:30:00: Balancing the network:
              Trial  1: relative flow change = 0.080189
              Trial  2: relative flow change = 0.000000
    23:30:00: Balanced after 2 trials
   
  WARNING: Negative pressures at 23:30:00 hrs.
  
    23:35:00: Balancing the network:
              Trial  1: relative flow change = 0.000000
    23:35:00: Balanced after 1 trials
   
  WARNING: Negative pressures at 23:35:00 hrs.
  
    23:40:00: Balancing the network:
              Trial  1: relative flow change = 0.000000
    23:40:00: Balanced after 1 trials
   
  WARNING: Negative pressures at 23:40:00 hrs.
  
    23:45:00: Balancing the network:
              Trial  1: relative flow change = 0.000000
    23:45:00: Balanced after 1 trials
   
  WARNING: Negative pressures at 23:45:00 hrs.
  
    23:50:00: Balancing the network:
              Trial  1: relative flow change = 0.000000
    23:50:00: Balanced after 1 trials
   
  WARNING: Negative pressures at 23:50:00 hrs.
  
    23:55:00: Balancing the network:
              Trial  1: relative flow change = 0.000000
    23:55:00: Balanced after 1 trials
   
  WARNING: Negative pressures at 23:55:00 hrs.
  
    24:00:00: Balancing the network:
              Trial  1: relative flow change = 0.008266
              Trial  2: relative flow change = 0.000000
    24:00:00: Balanced after 2 trials
   
  WARNING: Negative pressures at 24:00:00 hrs.
  
  Analysis ended Tue Apr 08 11:26:14 2025
